lig_23468
     RDKit          3D

 25 26  0  0  1  0  0  0  0  0999 V2000
   45.1830    9.5094    0.3240 C   0  0  0  0  0  0  0  0  0  0  0  0
   44.9440   10.8706    0.5941 C   0  0  0  0  0  0  0  0  0  0  0  0
   45.9572   11.6843    1.1482 C   0  0  0  0  0  0  0  0  0  0  0  0
   47.2152   11.0916    1.4112 C   0  0  0  0  0  0  0  0  0  0  0  0
   47.4547    9.7170    1.2024 C   0  0  0  0  0  0  0  0  0  0  0  0
   46.4278    8.9299    0.6328 C   0  0  0  0  0  0  0  0  0  0  0  0
   48.7316    9.2070    1.5822 N   0  0  0  0  0  0  0  0  0  0  0  0
   49.0865    7.9270    1.8251 C   0  0  0  0  0  0  0  0  0  0  0  0
   48.3250    6.9651    1.7584 O   0  0  0  0  0  0  0  0  0  0  0  0
   50.5499    7.6901    2.2092 C   0  0  0  0  0  0  0  0  0  0  0  0
   50.6927    6.8137    3.4634 C   0  0  0  0  0  0  0  0  0  0  0  0
   45.7012   13.0907    1.4783 C   0  0  0  0  0  0  0  0  0  0  0  0
   46.1829   13.8522    2.5137 C   0  0  0  0  0  0  0  0  0  0  0  0
   45.7414   15.1984    2.5409 C   0  0  0  0  0  0  0  0  0  0  0  0
   44.8519   15.4793    1.5357 C   0  0  0  0  0  0  0  0  0  0  0  0
   44.5981   14.0635    0.5202 S   0  0  0  0  0  0  0  0  0  0  0  0
   44.0989   16.7190    1.2240 C   0  0  0  0  0  0  0  0  0  0  0  0
   43.4993   16.8395    0.1366 O   0  0  0  0  0  0  0  0  0  0  0  0
   44.0797   17.6355    2.0817 O   0  0  0  0  0  0  0  0  0  0  0  0
   46.0774   16.0618    3.5147 O   0  0  0  0  0  0  0  0  0  0  0  0
   47.2926   16.7636    3.3424 C   0  0  0  0  0  0  0  0  0  0  0  0
   47.6789   17.4000    4.6820 C   0  0  0  0  0  0  0  0  0  0  0  0
   48.7722   18.0128    4.7169 O   0  0  0  0  0  0  0  0  0  0  0  0
   46.8801   17.2728    5.6456 O   0  0  0  0  0  0  0  0  0  0  0  0
   47.2845   13.2022    3.9161 Br  0  0  0  0  0  0  0  0  0  0  0  0
  1  6  2  0
  1  2  1  0
  2  3  2  0
  3  4  1  0
  3 12  1  0
  4  5  2  0
  5  6  1  0
  5  7  1  0
  7  8  1  0
  8  9  2  0
  8 10  1  0
 10 11  1  0
 12 16  1  0
 12 13  2  0
 13 14  1  0
 13 25  1  0
 14 15  2  0
 14 20  1  0
 15 16  1  0
 15 17  1  0
 17 18  2  0
 17 19  1  0
 20 21  1  0
 21 22  1  0
 22 23  2  0
 22 24  1  0
M  CHG  2  19  -1  24  -1
M  END
