lig_23480
     RDKit          3D

 32 34  0  0  1  0  0  0  0  0999 V2000
   45.2358    9.5193    0.3187 C   0  0  0  0  0  0  0  0  0  0  0  0
   44.9726   10.8826    0.5626 C   0  0  0  0  0  0  0  0  0  0  0  0
   45.9603   11.7073    1.1479 C   0  0  0  0  0  0  0  0  0  0  0  0
   47.2158   11.1289    1.4562 C   0  0  0  0  0  0  0  0  0  0  0  0
   47.4764    9.7572    1.2739 C   0  0  0  0  0  0  0  0  0  0  0  0
   46.4717    8.9507    0.6929 C   0  0  0  0  0  0  0  0  0  0  0  0
   48.7275    9.2714    1.6961 N   0  0  0  0  0  0  0  0  0  0  0  0
   49.0215    7.8416    1.7619 C   0  0  0  0  0  0  0  0  0  0  0  0
   48.4534    7.1540    3.0190 C   0  0  0  0  0  0  0  0  0  0  0  0
   48.3130    5.6271    2.8311 C   0  0  0  0  0  0  0  0  0  0  0  0
   49.6707    4.9054    2.8671 C   0  0  0  0  0  0  0  0  0  0  0  0
   50.3612    5.2407    4.1158 N   0  0  0  0  0  0  0  0  0  0  0  0
   50.6462    6.6763    4.2459 C   0  0  0  0  0  0  0  0  0  0  0  0
   49.3087    7.4499    4.2684 C   0  0  0  0  0  0  0  0  0  0  0  0
   50.6174    4.2654    5.0901 C   0  0  0  0  0  0  0  0  0  0  0  0
   50.3053    3.0768    5.0073 O   0  0  0  0  0  0  0  0  0  0  0  0
   51.2744    4.7834    6.1531 O   0  0  0  0  0  0  0  0  0  0  0  0
   51.6262    3.9246    7.2258 C   0  0  0  0  0  0  0  0  0  0  0  0
   45.6942   13.1129    1.4783 C   0  0  0  0  0  0  0  0  0  0  0  0
   46.1729   13.8711    2.5152 C   0  0  0  0  0  0  0  0  0  0  0  0
   45.7330   15.2161    2.5442 C   0  0  0  0  0  0  0  0  0  0  0  0
   44.8482   15.5001    1.5349 C   0  0  0  0  0  0  0  0  0  0  0  0
   44.5901   14.0855    0.5187 S   0  0  0  0  0  0  0  0  0  0  0  0
   44.1015   16.7437    1.2223 C   0  0  0  0  0  0  0  0  0  0  0  0
   43.5079   16.8574    0.1296 O   0  0  0  0  0  0  0  0  0  0  0  0
   44.0791   17.6648    2.0728 O   0  0  0  0  0  0  0  0  0  0  0  0
   46.0789   16.0761    3.5182 O   0  0  0  0  0  0  0  0  0  0  0  0
   47.3079   16.7521    3.3526 C   0  0  0  0  0  0  0  0  0  0  0  0
   47.6841   17.4036    4.6832 C   0  0  0  0  0  0  0  0  0  0  0  0
   48.7762   18.0160    4.7183 O   0  0  0  0  0  0  0  0  0  0  0  0
   46.8800   17.2806    5.6446 O   0  0  0  0  0  0  0  0  0  0  0  0
   47.2786   13.2156    3.9183 Br  0  0  0  0  0  0  0  0  0  0  0  0
  1  6  2  0
  1  2  1  0
  2  3  2  0
  3  4  1  0
  3 19  1  0
  4  5  2  0
  5  6  1  0
  5  7  1  0
  7  8  1  0
  8  9  1  0
  9 14  1  0
  9 10  1  0
 10 11  1  0
 11 12  1  0
 12 13  1  0
 12 15  1  0
 13 14  1  0
 15 16  2  0
 15 17  1  0
 17 18  1  0
 19 23  1  0
 19 20  2  0
 20 21  1  0
 20 32  1  0
 21 22  2  0
 21 27  1  0
 22 23  1  0
 22 24  1  0
 24 25  2  0
 24 26  1  0
 27 28  1  0
 28 29  1  0
 29 30  2  0
 29 31  1  0
M  CHG  2  26  -1  31  -1
M  END
