lig_23467
     RDKit          3D

 22 23  0  0  1  0  0  0  0  0999 V2000
   45.1788    9.5008    0.3184 C   0  0  0  0  0  0  0  0  0  0  0  0
   45.0106   10.8694    0.5830 C   0  0  0  0  0  0  0  0  0  0  0  0
   46.0520   11.6345    1.1559 C   0  0  0  0  0  0  0  0  0  0  0  0
   47.2914   10.9847    1.4411 C   0  0  0  0  0  0  0  0  0  0  0  0
   47.4612    9.5986    1.1823 C   0  0  0  0  0  0  0  0  0  0  0  0
   46.3898    8.8712    0.6457 C   0  0  0  0  0  0  0  0  0  0  0  0
   48.5764    8.8137    1.3773 O   0  0  0  0  0  0  0  0  0  0  0  0
   49.6703    9.3044    2.1035 C   0  0  0  0  0  0  0  0  0  0  0  0
   45.8016   13.0533    1.4647 C   0  0  0  0  0  0  0  0  0  0  0  0
   46.2459   13.8187    2.5067 C   0  0  0  0  0  0  0  0  0  0  0  0
   45.7774   15.1597    2.5383 C   0  0  0  0  0  0  0  0  0  0  0  0
   44.9047   15.4343    1.5166 C   0  0  0  0  0  0  0  0  0  0  0  0
   44.7061   14.0238    0.4829 S   0  0  0  0  0  0  0  0  0  0  0  0
   44.1413   16.6722    1.2126 C   0  0  0  0  0  0  0  0  0  0  0  0
   43.5737   16.8096    0.1083 O   0  0  0  0  0  0  0  0  0  0  0  0
   44.0802   17.5691    2.0868 O   0  0  0  0  0  0  0  0  0  0  0  0
   46.0808   16.0311    3.5183 O   0  0  0  0  0  0  0  0  0  0  0  0
   47.3020   16.7328    3.3654 C   0  0  0  0  0  0  0  0  0  0  0  0
   47.6799   17.3911    4.6931 C   0  0  0  0  0  0  0  0  0  0  0  0
   48.7649   18.0162    4.7185 O   0  0  0  0  0  0  0  0  0  0  0  0
   46.8787   17.2734    5.6566 O   0  0  0  0  0  0  0  0  0  0  0  0
   47.3190   13.1542    3.9182 Br  0  0  0  0  0  0  0  0  0  0  0  0
  1  6  2  0
  1  2  1  0
  2  3  2  0
  3  4  1  0
  3  9  1  0
  4  5  2  0
  5  6  1  0
  5  7  1  0
  7  8  1  0
  9 13  1  0
  9 10  2  0
 10 11  1  0
 10 22  1  0
 11 12  2  0
 11 17  1  0
 12 13  1  0
 12 14  1  0
 14 15  2  0
 14 16  1  0
 17 18  1  0
 18 19  1  0
 19 20  2  0
 19 21  1  0
M  CHG  2  16  -1  21  -1
M  END
