lig_23484
     RDKit          3D

 36 39  0  0  1  0  0  0  0  0999 V2000
   48.4892    0.8176    5.2333 C   0  0  0  0  0  0  0  0  0  0  0  0
   49.6516    0.8780    6.0265 C   0  0  0  0  0  0  0  0  0  0  0  0
   50.6906    1.7696    5.6891 C   0  0  0  0  0  0  0  0  0  0  0  0
   50.5789    2.5951    4.5469 C   0  0  0  0  0  0  0  0  0  0  0  0
   49.4126    2.5275    3.7556 C   0  0  0  0  0  0  0  0  0  0  0  0
   48.3683    1.6476    4.1011 C   0  0  0  0  0  0  0  0  0  0  0  0
   51.7234    3.5096    4.1373 C   0  0  0  0  0  0  0  0  0  0  0  0
   51.4651    5.2516    4.6989 S   0  0  0  0  0  0  0  0  0  0  0  0
   52.7684    5.9363    4.6945 O   0  0  0  0  0  0  0  0  0  0  0  0
   50.6481    5.2581    5.9181 O   0  0  0  0  0  0  0  0  0  0  0  0
   50.5086    5.9374    3.4249 N   0  0  0  0  0  0  0  0  0  0  0  0
   51.1108    6.3766    2.1605 C   0  0  0  0  0  0  0  0  0  0  0  0
   50.6716    7.8157    1.8542 C   0  0  0  0  0  0  0  0  0  0  0  0
   49.1380    7.9622    1.8516 C   0  0  0  0  0  0  0  0  0  0  0  0
   48.5684    7.4487    3.1880 C   0  0  0  0  0  0  0  0  0  0  0  0
   49.0350    6.0128    3.4877 C   0  0  0  0  0  0  0  0  0  0  0  0
   48.7973    9.3618    1.6290 N   0  0  0  0  0  0  0  0  0  0  0  0
   47.5162    9.7956    1.2570 C   0  0  0  0  0  0  0  0  0  0  0  0
   46.5361    8.9625    0.6742 C   0  0  0  0  0  0  0  0  0  0  0  0
   45.2805    9.4965    0.3182 C   0  0  0  0  0  0  0  0  0  0  0  0
   44.9875   10.8534    0.5650 C   0  0  0  0  0  0  0  0  0  0  0  0
   45.9556   11.6998    1.1499 C   0  0  0  0  0  0  0  0  0  0  0  0
   47.2167   11.1533    1.4751 C   0  0  0  0  0  0  0  0  0  0  0  0
   45.6757   13.0976    1.4753 C   0  0  0  0  0  0  0  0  0  0  0  0
   46.2271   13.8355    2.4862 C   0  0  0  0  0  0  0  0  0  0  0  0
   45.7399   15.1705    2.5480 C   0  0  0  0  0  0  0  0  0  0  0  0
   44.8314   15.4627    1.5581 C   0  0  0  0  0  0  0  0  0  0  0  0
   44.5321   14.0548    0.5553 S   0  0  0  0  0  0  0  0  0  0  0  0
   44.0993   16.7163    1.2477 C   0  0  0  0  0  0  0  0  0  0  0  0
   43.5284   16.8483    0.1433 O   0  0  0  0  0  0  0  0  0  0  0  0
   44.0783   17.6294    2.1074 O   0  0  0  0  0  0  0  0  0  0  0  0
   46.0793   16.0348    3.5183 O   0  0  0  0  0  0  0  0  0  0  0  0
   47.3148   16.7081    3.3605 C   0  0  0  0  0  0  0  0  0  0  0  0
   47.6814   17.3859    4.6848 C   0  0  0  0  0  0  0  0  0  0  0  0
   48.7637   18.0136    4.7188 O   0  0  0  0  0  0  0  0  0  0  0  0
   46.8799   17.2712    5.6479 O   0  0  0  0  0  0  0  0  0  0  0  0
  1  6  2  0
  1  2  1  0
  2  3  2  0
  3  4  1  0
  4  5  2  0
  4  7  1  0
  5  6  1  0
  7  8  1  0
  8  9  2  0
  8 10  2  0
  8 11  1  0
 11 16  1  0
 11 12  1  0
 12 13  1  0
 13 14  1  0
 14 15  1  0
 14 17  1  0
 15 16  1  0
 17 18  1  0
 18 23  1  0
 18 19  2  0
 19 20  1  0
 20 21  2  0
 21 22  1  0
 22 23  2  0
 22 24  1  0
 24 28  1  0
 24 25  2  0
 25 26  1  0
 26 27  2  0
 26 32  1  0
 27 28  1  0
 27 29  1  0
 29 30  2  0
 29 31  1  0
 32 33  1  0
 33 34  1  0
 34 35  2  0
 34 36  1  0
M  CHG  2  31  -1  36  -1
M  END
