lig_23485
     RDKit          3D

 37 40  0  0  1  0  0  0  0  0999 V2000
   52.5933    0.7022    7.1148 C   0  0  0  0  0  0  0  0  0  0  0  0
   51.2324    0.9699    6.8748 C   0  0  0  0  0  0  0  0  0  0  0  0
   50.8596    1.8591    5.8497 C   0  0  0  0  0  0  0  0  0  0  0  0
   51.8514    2.4798    5.0595 C   0  0  0  0  0  0  0  0  0  0  0  0
   53.2139    2.1958    5.2929 C   0  0  0  0  0  0  0  0  0  0  0  0
   53.5842    1.3042    6.3183 C   0  0  0  0  0  0  0  0  0  0  0  0
   51.4496    3.4590    3.9745 C   0  0  0  0  0  0  0  0  0  0  0  0
   51.5922    5.1774    4.6126 S   0  0  0  0  0  0  0  0  0  0  0  0
   52.9914    5.6174    4.4829 O   0  0  0  0  0  0  0  0  0  0  0  0
   50.9272    5.2559    5.9189 O   0  0  0  0  0  0  0  0  0  0  0  0
   50.6364    6.0832    3.4910 N   0  0  0  0  0  0  0  0  0  0  0  0
   51.1445    6.3607    2.1416 C   0  0  0  0  0  0  0  0  0  0  0  0
   50.6785    7.7509    1.6959 C   0  0  0  0  0  0  0  0  0  0  0  0
   49.1490    7.9117    1.7772 C   0  0  0  0  0  0  0  0  0  0  0  0
   48.6589    7.5262    3.1863 C   0  0  0  0  0  0  0  0  0  0  0  0
   49.1670    6.1400    3.6180 C   0  0  0  0  0  0  0  0  0  0  0  0
   48.8222    9.2964    1.4799 N   0  0  0  0  0  0  0  0  0  0  0  0
   47.5308    9.7454    1.1700 C   0  0  0  0  0  0  0  0  0  0  0  0
   46.5196    8.9345    0.6113 C   0  0  0  0  0  0  0  0  0  0  0  0
   45.2583    9.4940    0.3186 C   0  0  0  0  0  0  0  0  0  0  0  0
   44.9848   10.8426    0.6345 C   0  0  0  0  0  0  0  0  0  0  0  0
   45.9821   11.6677    1.2055 C   0  0  0  0  0  0  0  0  0  0  0  0
   47.2570   11.1020    1.4245 C   0  0  0  0  0  0  0  0  0  0  0  0
   45.7207   13.0666    1.5712 C   0  0  0  0  0  0  0  0  0  0  0  0
   46.2088   13.8071    2.6293 C   0  0  0  0  0  0  0  0  0  0  0  0
   45.7544   15.1621    2.5952 C   0  0  0  0  0  0  0  0  0  0  0  0
   44.8768   15.4397    1.5788 C   0  0  0  0  0  0  0  0  0  0  0  0
   44.6325   14.0258    0.5804 S   0  0  0  0  0  0  0  0  0  0  0  0
   44.1332   16.6848    1.2508 C   0  0  0  0  0  0  0  0  0  0  0  0
   43.5719   16.8124    0.1407 O   0  0  0  0  0  0  0  0  0  0  0  0
   44.0789   17.5994    2.1085 O   0  0  0  0  0  0  0  0  0  0  0  0
   46.0787   16.0693    3.5288 O   0  0  0  0  0  0  0  0  0  0  0  0
   47.3051   16.7489    3.3560 C   0  0  0  0  0  0  0  0  0  0  0  0
   47.6815   17.4023    4.6861 C   0  0  0  0  0  0  0  0  0  0  0  0
   48.7714   18.0173    4.7184 O   0  0  0  0  0  0  0  0  0  0  0  0
   46.8798   17.2737    5.6492 O   0  0  0  0  0  0  0  0  0  0  0  0
   47.0931   13.2991    3.7425 C   0  0  0  0  0  0  0  0  0  0  0  0
  1  6  2  0
  1  2  1  0
  2  3  2  0
  3  4  1  0
  4  5  2  0
  4  7  1  0
  5  6  1  0
  7  8  1  0
  8  9  2  0
  8 10  2  0
  8 11  1  0
 11 16  1  0
 11 12  1  0
 12 13  1  0
 13 14  1  0
 14 15  1  0
 14 17  1  0
 15 16  1  0
 17 18  1  0
 18 23  1  0
 18 19  2  0
 19 20  1  0
 20 21  2  0
 21 22  1  0
 22 23  2  0
 22 24  1  0
 24 28  1  0
 24 25  2  0
 25 26  1  0
 25 37  1  0
 26 27  2  0
 26 32  1  0
 27 28  1  0
 27 29  1  0
 29 30  2  0
 29 31  1  0
 32 33  1  0
 33 34  1  0
 34 35  2  0
 34 36  1  0
M  CHG  2  31  -1  36  -1
M  END
