lig_ejm_42
     RDKit          3D

 22 23  0  0  1  0  0  0  0  0999 V2000
   -5.3540   -3.6915  -16.2345 C   0  0  0  0  0  0  0  0  0  0  0  0
   -4.7691   -4.9689  -16.2177 C   0  0  0  0  0  0  0  0  0  0  0  0
   -5.5347   -6.0946  -15.8561 C   0  0  0  0  0  0  0  0  0  0  0  0
   -6.8966   -5.9468  -15.4840 C   0  0  0  0  0  0  0  0  0  0  0  0
   -7.4850   -4.6563  -15.5235 C   0  0  0  0  0  0  0  0  0  0  0  0
   -6.7116   -3.5389  -15.9005 C   0  0  0  0  0  0  0  0  0  0  0  0
   -9.1599   -4.4089  -15.1537 Cl  0  0  0  0  0  0  0  0  0  0  0  0
   -7.7049   -7.1318  -15.0417 C   0  0  0  0  0  0  0  0  0  0  0  0
   -8.1086   -7.2070  -13.8803 O   0  0  0  0  0  0  0  0  0  0  0  0
   -7.9133   -8.0454  -16.0060 N   0  0  0  0  0  0  0  0  0  0  0  0
   -8.7328   -9.2042  -16.0075 C   0  0  0  0  0  0  0  0  0  0  0  0
   -9.5847   -9.5857  -14.9496 C   0  0  0  0  0  0  0  0  0  0  0  0
  -10.3834  -10.7273  -15.1242 C   0  0  0  0  0  0  0  0  0  0  0  0
  -10.3610  -11.4928  -16.2378 N   0  0  0  0  0  0  0  0  0  0  0  0
   -9.5431  -11.1514  -17.2605 C   0  0  0  0  0  0  0  0  0  0  0  0
   -8.7262   -9.9969  -17.1722 C   0  0  0  0  0  0  0  0  0  0  0  0
   -9.5690  -11.9543  -18.4378 N   0  0  0  0  0  0  0  0  0  0  0  0
   -8.6819  -12.0641  -19.4453 C   0  0  0  0  0  0  0  0  0  0  0  0
   -7.6202  -11.4430  -19.5152 O   0  0  0  0  0  0  0  0  0  0  0  0
   -9.0509  -13.0413  -20.5692 C   0  0  0  0  0  0  0  0  0  0  0  0
   -7.8469  -13.8628  -21.0583 C   0  0  0  0  0  0  0  0  0  0  0  0
   -4.7606   -7.6372  -15.8755 Cl  0  0  0  0  0  0  0  0  0  0  0  0
  1  6  2  0
  1  2  1  0
  2  3  2  0
  3  4  1  0
  3 22  1  0
  4  5  2  0
  4  8  1  0
  5  6  1  0
  5  7  1  0
  8  9  2  0
  8 10  1  0
 10 11  1  0
 11 16  1  0
 11 12  2  0
 12 13  1  0
 13 14  2  0
 14 15  1  0
 15 16  2  0
 15 17  1  0
 17 18  1  0
 18 19  2  0
 18 20  1  0
 20 21  1  0
M  END
