ligand-7
     RDKit          3D

 16 18  0  0  0  0  0  0  0  0999 V2000
   42.3526   43.6387   30.2688 O   0  0  0  0  0  0  0  0  0  0  0  0
   40.8269   42.6613   31.4160 O   0  0  0  0  0  0  0  0  0  0  0  0
   43.8335   40.1789   30.5994 O   0  0  0  0  0  0  0  0  0  0  0  0
   42.0345   41.2285   34.6487 O   0  0  0  0  0  0  0  0  0  0  0  0
   42.9074   40.9888   32.5331 N   0  0  0  0  0  0  0  0  0  0  0  0
   43.0428   42.4473   32.2125 C   0  0  0  0  0  0  0  0  0  0  0  0
   45.5907   38.8714   33.3008 C   0  0  0  0  0  0  0  0  0  0  0  0
   45.0309   39.2777   34.6811 C   0  0  0  0  0  0  0  0  0  0  0  0
   44.0966   37.1630   34.0398 C   0  0  0  0  0  0  0  0  0  0  0  0
   41.9923   42.9429   31.2144 C   0  0  0  0  0  0  0  0  0  0  0  0
   43.3541   39.9942   31.7021 C   0  0  0  0  0  0  0  0  0  0  0  0
   42.4744   40.5339   33.7471 C   0  0  0  0  0  0  0  0  0  0  0  0
   44.5226   37.8878   32.7552 C   0  0  1  0  0  0  0  0  0  0  0  0
   43.7036   38.4571   34.7711 C   0  0  2  0  0  0  0  0  0  0  0  0
   43.2034   38.6464   32.4023 C   0  0  1  0  0  0  0  0  0  0  0  0
   42.6230   39.0129   33.8023 C   0  0  2  0  0  0  0  0  0  0  0  0
  1 10  1  0
  2 10  2  0
  3 11  2  0
  4 12  2  0
  5  6  1  0
  5 11  1  0
  5 12  1  0
  6 10  1  0
  7  8  1  0
 13  7  1  1
 14  8  1  6
  9 13  1  0
  9 14  1  0
 15 11  1  6
 16 12  1  6
 13 15  1  0
 14 16  1  0
 15 16  1  0
M  CHG  1   1  -1
M  END
