lig_32
     RDKit          3D

 23 25  0  0  1  0  0  0  0  0999 V2000
   68.7696  -35.7042   28.0911 C   0  0  0  0  0  0  0  0  0  0  0  0
   70.0985  -35.6183   28.5499 C   0  0  0  0  0  0  0  0  0  0  0  0
   70.9788  -34.6825   27.9725 C   0  0  0  0  0  0  0  0  0  0  0  0
   70.5191  -33.8428   26.9386 C   0  0  0  0  0  0  0  0  0  0  0  0
   69.1859  -33.9209   26.4440 C   0  0  0  0  0  0  0  0  0  0  0  0
   68.3224  -34.8658   27.0500 C   0  0  0  0  0  0  0  0  0  0  0  0
   69.0406  -32.9480   25.3948 C   0  0  0  0  0  0  0  0  0  0  0  0
   70.2501  -32.2988   25.2703 C   0  0  0  0  0  0  0  0  0  0  0  0
   71.1208  -32.8359   26.2068 N   0  0  0  0  0  0  0  0  0  0  0  0
   70.7481  -31.1921   24.4087 C   0  0  0  0  0  0  0  0  0  0  0  0
   71.8458  -30.6588   24.6831 O   0  0  0  0  0  0  0  0  0  0  0  0
   70.0736  -30.7964   23.4307 O   0  0  0  0  0  0  0  0  0  0  0  0
   67.7906  -32.6484   24.6165 C   0  0  0  0  0  0  0  0  0  0  0  0
   67.1282  -31.3357   25.0677 C   0  0  0  0  0  0  0  0  0  0  0  0
   66.5034  -31.4062   26.4667 C   0  0  0  0  0  0  0  0  0  0  0  0
   65.3475  -32.2228   26.3781 O   0  0  0  0  0  0  0  0  0  0  0  0
   64.4846  -32.2507   27.4447 C   0  0  0  0  0  0  0  0  0  0  0  0
   63.1860  -32.7348   27.1932 C   0  0  0  0  0  0  0  0  0  0  0  0
   62.2566  -32.8575   28.2416 C   0  0  0  0  0  0  0  0  0  0  0  0
   62.6124  -32.4782   29.5524 C   0  0  0  0  0  0  0  0  0  0  0  0
   63.8983  -31.9584   29.8045 C   0  0  0  0  0  0  0  0  0  0  0  0
   64.8327  -31.8449   28.7564 C   0  0  0  0  0  0  0  0  0  0  0  0
   61.6260  -32.6535   30.6884 C   0  0  0  0  0  0  0  0  0  0  0  0
  1  6  2  0
  1  2  1  0
  2  3  2  0
  3  4  1  0
  4  9  1  0
  4  5  2  0
  5  6  1  0
  5  7  1  0
  7  8  2  0
  7 13  1  0
  8  9  1  0
  8 10  1  0
 10 11  2  0
 10 12  1  0
 13 14  1  0
 14 15  1  0
 15 16  1  0
 16 17  1  0
 17 22  1  0
 17 18  2  0
 18 19  1  0
 19 20  2  0
 20 21  1  0
 20 23  1  0
 21 22  2  0
M  CHG  1  12  -1
M  END
