lig_23475
     RDKit          3D

 26 28  0  0  1  0  0  0  0  0999 V2000
   45.2503    9.5189    0.3183 C   0  0  0  0  0  0  0  0  0  0  0  0
   44.9690   10.8718    0.5965 C   0  0  0  0  0  0  0  0  0  0  0  0
   45.9618   11.7117    1.1472 C   0  0  0  0  0  0  0  0  0  0  0  0
   47.2413   11.1657    1.3893 C   0  0  0  0  0  0  0  0  0  0  0  0
   47.5216    9.8059    1.1687 C   0  0  0  0  0  0  0  0  0  0  0  0
   46.5146    8.9789    0.6254 C   0  0  0  0  0  0  0  0  0  0  0  0
   48.8014    9.3503    1.5180 N   0  0  0  0  0  0  0  0  0  0  0  0
   49.0268    7.9545    1.8744 C   0  0  0  0  0  0  0  0  0  0  0  0
   50.4730    7.6991    2.2962 C   0  0  0  0  0  0  0  0  0  0  0  0
   50.4003    6.4036    3.0991 C   0  0  0  0  0  0  0  0  0  0  0  0
   49.0754    6.4880    3.8576 C   0  0  0  0  0  0  0  0  0  0  0  0
   48.1867    7.4669    3.0697 C   0  0  0  0  0  0  0  0  0  0  0  0
   45.6850   13.1066    1.4892 C   0  0  0  0  0  0  0  0  0  0  0  0
   46.1645   13.8635    2.5244 C   0  0  0  0  0  0  0  0  0  0  0  0
   45.7277   15.2101    2.5496 C   0  0  0  0  0  0  0  0  0  0  0  0
   44.8452   15.4928    1.5339 C   0  0  0  0  0  0  0  0  0  0  0  0
   44.5824   14.0753    0.5283 S   0  0  0  0  0  0  0  0  0  0  0  0
   44.1087   16.7403    1.2030 C   0  0  0  0  0  0  0  0  0  0  0  0
   43.5232   16.8514    0.1043 O   0  0  0  0  0  0  0  0  0  0  0  0
   44.0789   17.6636    2.0527 O   0  0  0  0  0  0  0  0  0  0  0  0
   46.0792   16.0731    3.5185 O   0  0  0  0  0  0  0  0  0  0  0  0
   47.2994   16.7558    3.3482 C   0  0  0  0  0  0  0  0  0  0  0  0
   47.6789   17.3990    4.6811 C   0  0  0  0  0  0  0  0  0  0  0  0
   48.7638   18.0171    4.7059 O   0  0  0  0  0  0  0  0  0  0  0  0
   46.8793   17.2757    5.6434 O   0  0  0  0  0  0  0  0  0  0  0  0
   47.2797   13.2107    3.9183 Br  0  0  0  0  0  0  0  0  0  0  0  0
  1  6  2  0
  1  2  1  0
  2  3  2  0
  3  4  1  0
  3 13  1  0
  4  5  2  0
  5  6  1  0
  5  7  1  0
  7  8  1  0
  8 12  1  0
  8  9  1  0
  9 10  1  0
 10 11  1  0
 11 12  1  0
 13 17  1  0
 13 14  2  0
 14 15  1  0
 14 26  1  0
 15 16  2  0
 15 21  1  0
 16 17  1  0
 16 18  1  0
 18 19  2  0
 18 20  1  0
 21 22  1  0
 22 23  1  0
 23 24  2  0
 23 25  1  0
M  CHG  2  20  -1  25  -1
M  END
