lig_23470
     RDKit          3D

 27 28  0  0  1  0  0  0  0  0999 V2000
   45.1971    9.5124    0.3129 C   0  0  0  0  0  0  0  0  0  0  0  0
   44.9555   10.8759    0.5810 C   0  0  0  0  0  0  0  0  0  0  0  0
   45.9611   11.6865    1.1516 C   0  0  0  0  0  0  0  0  0  0  0  0
   47.2149   11.0858    1.4474 C   0  0  0  0  0  0  0  0  0  0  0  0
   47.4485    9.7082    1.2555 C   0  0  0  0  0  0  0  0  0  0  0  0
   46.4276    8.9290    0.6587 C   0  0  0  0  0  0  0  0  0  0  0  0
   48.7123    9.1826    1.6672 N   0  0  0  0  0  0  0  0  0  0  0  0
   49.0734    7.9035    1.8504 C   0  0  0  0  0  0  0  0  0  0  0  0
   48.3461    6.9303    1.6486 O   0  0  0  0  0  0  0  0  0  0  0  0
   50.3310    7.7807    2.3084 N   0  0  0  0  0  0  0  0  0  0  0  0
   50.9639    6.4988    2.6311 C   0  0  0  0  0  0  0  0  0  0  0  0
   52.1272    6.7235    3.6070 C   0  0  0  0  0  0  0  0  0  0  0  0
   51.4276    5.7723    1.3522 C   0  0  0  0  0  0  0  0  0  0  0  0
   45.7093   13.0935    1.4747 C   0  0  0  0  0  0  0  0  0  0  0  0
   46.1821   13.8502    2.5155 C   0  0  0  0  0  0  0  0  0  0  0  0
   45.7433   15.1983    2.5451 C   0  0  0  0  0  0  0  0  0  0  0  0
   44.8643   15.4846    1.5316 C   0  0  0  0  0  0  0  0  0  0  0  0
   44.6142   14.0721    0.5086 S   0  0  0  0  0  0  0  0  0  0  0  0
   44.1229   16.7231    1.2153 C   0  0  0  0  0  0  0  0  0  0  0  0
   43.5452   16.8395    0.1126 O   0  0  0  0  0  0  0  0  0  0  0  0
   44.0824   17.6412    2.0674 O   0  0  0  0  0  0  0  0  0  0  0  0
   46.0796   16.0621    3.5186 O   0  0  0  0  0  0  0  0  0  0  0  0
   47.2999   16.7521    3.3560 C   0  0  0  0  0  0  0  0  0  0  0  0
   47.6855   17.4005    4.6860 C   0  0  0  0  0  0  0  0  0  0  0  0
   48.7753   18.0180    4.7183 O   0  0  0  0  0  0  0  0  0  0  0  0
   46.8864   17.2731    5.6508 O   0  0  0  0  0  0  0  0  0  0  0  0
   47.2810   13.1903    3.9179 Br  0  0  0  0  0  0  0  0  0  0  0  0
  1  6  2  0
  1  2  1  0
  2  3  2  0
  3  4  1  0
  3 14  1  0
  4  5  2  0
  5  6  1  0
  5  7  1  0
  7  8  1  0
  8  9  2  0
  8 10  1  0
 10 11  1  0
 11 12  1  0
 11 13  1  0
 14 18  1  0
 14 15  2  0
 15 16  1  0
 15 27  1  0
 16 17  2  0
 16 22  1  0
 17 18  1  0
 17 19  1  0
 19 20  2  0
 19 21  1  0
 22 23  1  0
 23 24  1  0
 24 25  2  0
 24 26  1  0
M  CHG  2  21  -1  26  -1
M  END
