lig_20670_2qbs
     RDKit          3D

 27 29  0  0  1  0  0  0  0  0999 V2000
   45.2530    9.4912    0.3183 C   0  0  0  0  0  0  0  0  0  0  0  0
   44.9710   10.8465    0.5763 C   0  0  0  0  0  0  0  0  0  0  0  0
   45.9591   11.6850    1.1367 C   0  0  0  0  0  0  0  0  0  0  0  0
   47.2354   11.1331    1.3976 C   0  0  0  0  0  0  0  0  0  0  0  0
   47.5151    9.7676    1.1849 C   0  0  0  0  0  0  0  0  0  0  0  0
   46.5094    8.9408    0.6403 C   0  0  0  0  0  0  0  0  0  0  0  0
   48.8044    9.3152    1.5163 N   0  0  0  0  0  0  0  0  0  0  0  0
   49.0779    7.9251    1.8801 C   0  0  0  0  0  0  0  0  0  0  0  0
   50.6032    7.7453    2.0232 C   0  0  0  0  0  0  0  0  0  0  0  0
   50.9929    6.3411    2.5134 C   0  0  0  0  0  0  0  0  0  0  0  0
   50.2744    5.9858    3.8236 C   0  0  0  0  0  0  0  0  0  0  0  0
   48.7536    6.1131    3.6683 C   0  0  0  0  0  0  0  0  0  0  0  0
   48.3578    7.5168    3.1894 C   0  0  0  0  0  0  0  0  0  0  0  0
   45.6798   13.0850    1.4788 C   0  0  0  0  0  0  0  0  0  0  0  0
   46.1586   13.8403    2.5195 C   0  0  0  0  0  0  0  0  0  0  0  0
   45.7297   15.1911    2.5440 C   0  0  0  0  0  0  0  0  0  0  0  0
   44.8425   15.4768    1.5372 C   0  0  0  0  0  0  0  0  0  0  0  0
   44.5884   14.0684    0.5116 S   0  0  0  0  0  0  0  0  0  0  0  0
   44.1043   16.7199    1.2167 C   0  0  0  0  0  0  0  0  0  0  0  0
   43.5387   16.8425    0.1077 O   0  0  0  0  0  0  0  0  0  0  0  0
   44.0785   17.6398    2.0693 O   0  0  0  0  0  0  0  0  0  0  0  0
   46.0767   16.0499    3.5187 O   0  0  0  0  0  0  0  0  0  0  0  0
   47.2851   16.7566    3.3416 C   0  0  0  0  0  0  0  0  0  0  0  0
   47.6785   17.4020    4.6710 C   0  0  0  0  0  0  0  0  0  0  0  0
   48.7704   18.0163    4.7183 O   0  0  0  0  0  0  0  0  0  0  0  0
   46.8790   17.2738    5.6320 O   0  0  0  0  0  0  0  0  0  0  0  0
   47.2795   13.1911    3.9182 Br  0  0  0  0  0  0  0  0  0  0  0  0
  1  6  2  0
  1  2  1  0
  2  3  2  0
  3  4  1  0
  3 14  1  0
  4  5  2  0
  5  6  1  0
  5  7  1  0
  7  8  1  0
  8 13  1  0
  8  9  1  0
  9 10  1  0
 10 11  1  0
 11 12  1  0
 12 13  1  0
 14 18  1  0
 14 15  2  0
 15 16  1  0
 15 27  1  0
 16 17  2  0
 16 22  1  0
 17 18  1  0
 17 19  1  0
 19 20  2  0
 19 21  1  0
 22 23  1  0
 23 24  1  0
 24 25  2  0
 24 26  1  0
M  CHG  2  21  -1  26  -1
M  END
