lig_23472
     RDKit          3D

 31 33  0  0  1  0  0  0  0  0999 V2000
   45.1976    9.5155    0.3183 C   0  0  0  0  0  0  0  0  0  0  0  0
   44.9630   10.8805    0.5719 C   0  0  0  0  0  0  0  0  0  0  0  0
   45.9721   11.6859    1.1403 C   0  0  0  0  0  0  0  0  0  0  0  0
   47.2297   11.0928    1.4203 C   0  0  0  0  0  0  0  0  0  0  0  0
   47.4661    9.7174    1.2100 C   0  0  0  0  0  0  0  0  0  0  0  0
   46.4290    8.9322    0.6596 C   0  0  0  0  0  0  0  0  0  0  0  0
   48.7127    9.1951    1.5916 N   0  0  0  0  0  0  0  0  0  0  0  0
   49.5531    7.7452    1.0996 S   0  0  0  0  0  0  0  0  0  0  0  0
   48.6180    6.8956    0.3503 O   0  0  0  0  0  0  0  0  0  0  0  0
   50.8062    8.1980    0.4793 O   0  0  0  0  0  0  0  0  0  0  0  0
   49.9402    6.9483    2.6484 C   0  0  0  0  0  0  0  0  0  0  0  0
   51.2713    6.9422    3.1180 C   0  0  0  0  0  0  0  0  0  0  0  0
   51.5829    6.2668    4.3129 C   0  0  0  0  0  0  0  0  0  0  0  0
   50.5690    5.6030    5.0335 C   0  0  0  0  0  0  0  0  0  0  0  0
   49.2362    5.6336    4.5682 C   0  0  0  0  0  0  0  0  0  0  0  0
   48.9161    6.3032    3.3724 C   0  0  0  0  0  0  0  0  0  0  0  0
   50.8789    4.9348    6.1693 F   0  0  0  0  0  0  0  0  0  0  0  0
   45.7185   13.0919    1.4698 C   0  0  0  0  0  0  0  0  0  0  0  0
   46.1918   13.8476    2.5137 C   0  0  0  0  0  0  0  0  0  0  0  0
   45.7480   15.1931    2.5398 C   0  0  0  0  0  0  0  0  0  0  0  0
   44.8715   15.4769    1.5272 C   0  0  0  0  0  0  0  0  0  0  0  0
   44.6294   14.0676    0.5014 S   0  0  0  0  0  0  0  0  0  0  0  0
   44.1210   16.7151    1.2155 C   0  0  0  0  0  0  0  0  0  0  0  0
   43.5446   16.8395    0.1147 O   0  0  0  0  0  0  0  0  0  0  0  0
   44.0786   17.6308    2.0749 O   0  0  0  0  0  0  0  0  0  0  0  0
   46.0787   16.0503    3.5184 O   0  0  0  0  0  0  0  0  0  0  0  0
   47.2999   16.7499    3.3484 C   0  0  0  0  0  0  0  0  0  0  0  0
   47.6791   17.3985    4.6813 C   0  0  0  0  0  0  0  0  0  0  0  0
   48.7695   18.0128    4.7178 O   0  0  0  0  0  0  0  0  0  0  0  0
   46.8792   17.2728    5.6469 O   0  0  0  0  0  0  0  0  0  0  0  0
   47.2836   13.1887    3.9199 Br  0  0  0  0  0  0  0  0  0  0  0  0
  1  6  2  0
  1  2  1  0
  2  3  2  0
  3  4  1  0
  3 18  1  0
  4  5  2  0
  5  6  1  0
  5  7  1  0
  7  8  1  0
  8  9  2  0
  8 10  2  0
  8 11  1  0
 11 16  1  0
 11 12  2  0
 12 13  1  0
 13 14  2  0
 14 15  1  0
 14 17  1  0
 15 16  2  0
 18 22  1  0
 18 19  2  0
 19 20  1  0
 19 31  1  0
 20 21  2  0
 20 26  1  0
 21 22  1  0
 21 23  1  0
 23 24  2  0
 23 25  1  0
 26 27  1  0
 27 28  1  0
 28 29  2  0
 28 30  1  0
M  CHG  2  25  -1  30  -1
M  END
