lig_23471
     RDKit          3D

 25 26  0  0  1  0  0  0  0  0999 V2000
   45.1864    9.5087    0.3180 C   0  0  0  0  0  0  0  0  0  0  0  0
   44.9343   10.8677    0.5903 C   0  0  0  0  0  0  0  0  0  0  0  0
   45.9441   11.6857    1.1451 C   0  0  0  0  0  0  0  0  0  0  0  0
   47.2166   11.1176    1.4030 C   0  0  0  0  0  0  0  0  0  0  0  0
   47.4540    9.7375    1.2026 C   0  0  0  0  0  0  0  0  0  0  0  0
   46.4309    8.9399    0.6456 C   0  0  0  0  0  0  0  0  0  0  0  0
   48.7435    9.2395    1.5499 N   0  0  0  0  0  0  0  0  0  0  0  0
   49.1129    7.9175    1.7693 C   0  0  0  0  0  0  0  0  0  0  0  0
   48.4276    6.9101    1.6232 O   0  0  0  0  0  0  0  0  0  0  0  0
   50.3928    7.9066    2.1885 O   0  0  0  0  0  0  0  0  0  0  0  0
   50.9827    6.6511    2.5013 C   0  0  0  0  0  0  0  0  0  0  0  0
   45.6844   13.0912    1.4798 C   0  0  0  0  0  0  0  0  0  0  0  0
   46.1722   13.8456    2.5170 C   0  0  0  0  0  0  0  0  0  0  0  0
   45.7391   15.1933    2.5455 C   0  0  0  0  0  0  0  0  0  0  0  0
   44.8510   15.4787    1.5370 C   0  0  0  0  0  0  0  0  0  0  0  0
   44.5862   14.0706    0.5206 S   0  0  0  0  0  0  0  0  0  0  0  0
   44.1129   16.7267    1.2203 C   0  0  0  0  0  0  0  0  0  0  0  0
   43.5319   16.8488    0.1212 O   0  0  0  0  0  0  0  0  0  0  0  0
   44.0789   17.6486    2.0680 O   0  0  0  0  0  0  0  0  0  0  0  0
   46.0780   16.0573    3.5183 O   0  0  0  0  0  0  0  0  0  0  0  0
   47.2827   16.7725    3.3341 C   0  0  0  0  0  0  0  0  0  0  0  0
   47.6787   17.4013    4.6719 C   0  0  0  0  0  0  0  0  0  0  0  0
   48.7703   18.0163    4.7182 O   0  0  0  0  0  0  0  0  0  0  0  0
   46.8793   17.2734    5.6288 O   0  0  0  0  0  0  0  0  0  0  0  0
   47.2789   13.1919    3.9181 Br  0  0  0  0  0  0  0  0  0  0  0  0
  1  6  2  0
  1  2  1  0
  2  3  2  0
  3  4  1  0
  3 12  1  0
  4  5  2  0
  5  6  1  0
  5  7  1  0
  7  8  1  0
  8  9  2  0
  8 10  1  0
 10 11  1  0
 12 16  1  0
 12 13  2  0
 13 14  1  0
 13 25  1  0
 14 15  2  0
 14 20  1  0
 15 16  1  0
 15 17  1  0
 17 18  2  0
 17 19  1  0
 20 21  1  0
 21 22  1  0
 22 23  2  0
 22 24  1  0
M  CHG  2  19  -1  24  -1
M  END
