4q
     RDKit          3D

 30 32  0  0  1  0  0  0  0  0999 V2000
   66.4723   42.9283   46.0409 N   0  0  0  0  0  0  0  0  0  0  0  0
   67.4224   42.4779   46.8766 N   0  0  0  0  0  0  0  0  0  0  0  0
   67.1644   42.3022   48.2074 C   0  0  0  0  0  0  0  0  0  0  0  0
   65.8505   42.5282   48.6921 C   0  0  0  0  0  0  0  0  0  0  0  0
   64.9031   43.0332   47.8503 N   0  0  0  0  0  0  0  0  0  0  0  0
   65.2583   43.2172   46.5602 C   0  0  0  0  0  0  0  0  0  0  0  0
   70.6565   41.2829   50.5634 N   0  0  0  0  0  0  0  0  0  0  0  0
   70.4848   40.7915   49.3109 C   0  0  0  0  0  0  0  0  0  0  0  0
   69.3717   41.0934   48.5222 C   0  0  0  0  0  0  0  0  0  0  0  0
   68.3660   41.9348   49.0287 C   0  0  0  0  0  0  0  0  0  0  0  0
   68.5583   42.4578   50.3173 C   0  0  0  0  0  0  0  0  0  0  0  0
   69.6943   42.1053   51.0486 C   0  0  0  0  0  0  0  0  0  0  0  0
   64.3675   41.6307   52.6401 C   0  0  0  0  0  0  0  0  0  0  0  0
   65.3715   40.8456   52.0841 C   0  0  0  0  0  0  0  0  0  0  0  0
   65.8404   41.1245   50.8038 C   0  0  0  0  0  0  0  0  0  0  0  0
   65.3451   42.2147   50.0732 C   0  0  0  0  0  0  0  0  0  0  0  0
   64.3237   42.9831   50.6545 C   0  0  0  0  0  0  0  0  0  0  0  0
   63.8368   42.6987   51.9266 C   0  0  0  0  0  0  0  0  0  0  0  0
   64.3068   43.7572   45.7069 N   0  0  0  0  0  0  0  0  0  0  0  0
   71.2630   40.1406   48.9395 H   0  0  0  0  0  0  0  0  0  0  0  0
   69.2878   40.6672   47.5331 H   0  0  0  0  0  0  0  0  0  0  0  0
   67.8388   43.1374   50.7477 H   0  0  0  0  0  0  0  0  0  0  0  0
   69.8522   42.4999   52.0420 H   0  0  0  0  0  0  0  0  0  0  0  0
   63.9982   41.4082   53.6305 H   0  0  0  0  0  0  0  0  0  0  0  0
   65.7787   40.0139   52.6402 H   0  0  0  0  0  0  0  0  0  0  0  0
   66.5948   40.4775   50.3802 H   0  0  0  0  0  0  0  0  0  0  0  0
   63.9124   43.8326   50.1295 H   0  0  0  0  0  0  0  0  0  0  0  0
   63.0554   43.3072   52.3589 H   0  0  0  0  0  0  0  0  0  0  0  0
   63.4845   44.1971   46.1116 H   0  0  0  0  0  0  0  0  0  0  0  0
   64.5377   43.8882   44.7230 H   0  0  0  0  0  0  0  0  0  0  0  0
  1  2  2  0
  1  6  1  0
  2  3  1  0
  3  4  2  0
  3 10  1  0
  4  5  1  0
  4 16  1  0
  5  6  2  0
  6 19  1  0
  7  8  2  0
  7 12  1  0
  8  9  1  0
  8 20  1  0
  9 10  2  0
  9 21  1  0
 10 11  1  0
 11 12  2  0
 11 22  1  0
 12 23  1  0
 13 14  2  0
 13 18  1  0
 13 24  1  0
 14 15  1  0
 14 25  1  0
 15 16  2  0
 15 26  1  0
 16 17  1  0
 17 18  2  0
 17 27  1  0
 18 28  1  0
 19 29  1  0
 19 30  1  0
M  END
