lig_35
     RDKit          3D

 24 26  0  0  1  0  0  0  0  0999 V2000
   68.7411  -35.7769   28.0305 C   0  0  0  0  0  0  0  0  0  0  0  0
   70.0546  -35.6749   28.5286 C   0  0  0  0  0  0  0  0  0  0  0  0
   70.9362  -34.7193   27.9870 C   0  0  0  0  0  0  0  0  0  0  0  0
   70.4958  -33.8782   26.9459 C   0  0  0  0  0  0  0  0  0  0  0  0
   69.1759  -33.9648   26.4189 C   0  0  0  0  0  0  0  0  0  0  0  0
   68.3080  -34.9274   26.9904 C   0  0  0  0  0  0  0  0  0  0  0  0
   69.0447  -32.9756   25.3817 C   0  0  0  0  0  0  0  0  0  0  0  0
   70.2532  -32.3209   25.2897 C   0  0  0  0  0  0  0  0  0  0  0  0
   71.1070  -32.8624   26.2387 N   0  0  0  0  0  0  0  0  0  0  0  0
   70.7653  -31.1984   24.4556 C   0  0  0  0  0  0  0  0  0  0  0  0
   71.8467  -30.6548   24.7751 O   0  0  0  0  0  0  0  0  0  0  0  0
   70.1165  -30.7982   23.4628 O   0  0  0  0  0  0  0  0  0  0  0  0
   67.8072  -32.6530   24.5922 C   0  0  0  0  0  0  0  0  0  0  0  0
   67.1601  -31.3312   25.0440 C   0  0  0  0  0  0  0  0  0  0  0  0
   66.5509  -31.3909   26.4513 C   0  0  0  0  0  0  0  0  0  0  0  0
   65.3954  -32.2020   26.3685 O   0  0  0  0  0  0  0  0  0  0  0  0
   64.5234  -32.2100   27.4282 C   0  0  0  0  0  0  0  0  0  0  0  0
   63.2346  -32.7156   27.1783 C   0  0  0  0  0  0  0  0  0  0  0  0
   62.2974  -32.8302   28.2174 C   0  0  0  0  0  0  0  0  0  0  0  0
   62.6404  -32.4216   29.5181 C   0  0  0  0  0  0  0  0  0  0  0  0
   63.9095  -31.8553   29.7765 C   0  0  0  0  0  0  0  0  0  0  0  0
   64.8529  -31.7643   28.7316 C   0  0  0  0  0  0  0  0  0  0  0  0
   64.2787  -31.3668   31.1648 C   0  0  0  0  0  0  0  0  0  0  0  0
   61.4886  -32.6519   30.7782 Cl  0  0  0  0  0  0  0  0  0  0  0  0
  1  6  2  0
  1  2  1  0
  2  3  2  0
  3  4  1  0
  4  9  1  0
  4  5  2  0
  5  6  1  0
  5  7  1  0
  7  8  2  0
  7 13  1  0
  8  9  1  0
  8 10  1  0
 10 11  2  0
 10 12  1  0
 13 14  1  0
 14 15  1  0
 15 16  1  0
 16 17  1  0
 17 22  1  0
 17 18  2  0
 18 19  1  0
 19 20  2  0
 20 21  1  0
 20 24  1  0
 21 22  2  0
 21 23  1  0
M  CHG  1  12  -1
M  END
