lig_65
     RDKit          3D

 26 28  0  0  1  0  0  0  0  0999 V2000
   68.1210  -35.6074   28.1258 C   0  0  0  0  0  0  0  0  0  0  0  0
   67.9583  -34.7070   27.0543 C   0  0  0  0  0  0  0  0  0  0  0  0
   69.0324  -33.9479   26.5347 C   0  0  0  0  0  0  0  0  0  0  0  0
   70.3012  -34.1218   27.1689 C   0  0  0  0  0  0  0  0  0  0  0  0
   70.4753  -35.0168   28.2480 C   0  0  0  0  0  0  0  0  0  0  0  0
   69.3839  -35.7681   28.7217 C   0  0  0  0  0  0  0  0  0  0  0  0
   72.0175  -35.1929   29.0059 Cl  0  0  0  0  0  0  0  0  0  0  0  0
   71.5076  -33.0933   26.4116 S   0  0  0  0  0  0  0  0  0  0  0  0
   70.3415  -32.4563   25.2723 C   0  0  0  0  0  0  0  0  0  0  0  0
   69.0709  -32.9845   25.4428 C   0  0  0  0  0  0  0  0  0  0  0  0
   67.8648  -32.6224   24.6289 C   0  0  0  0  0  0  0  0  0  0  0  0
   67.2360  -31.2908   25.0679 C   0  0  0  0  0  0  0  0  0  0  0  0
   66.5611  -31.3413   26.4478 C   0  0  0  0  0  0  0  0  0  0  0  0
   65.4003  -32.1420   26.3359 O   0  0  0  0  0  0  0  0  0  0  0  0
   64.5299  -32.1955   27.4017 C   0  0  0  0  0  0  0  0  0  0  0  0
   63.2654  -32.7652   27.1585 C   0  0  0  0  0  0  0  0  0  0  0  0
   62.3293  -32.9173   28.1993 C   0  0  0  0  0  0  0  0  0  0  0  0
   62.6515  -32.4605   29.4959 C   0  0  0  0  0  0  0  0  0  0  0  0
   63.9062  -31.8538   29.7463 C   0  0  0  0  0  0  0  0  0  0  0  0
   64.8454  -31.7315   28.7012 C   0  0  0  0  0  0  0  0  0  0  0  0
   64.2652  -31.3331   31.1298 C   0  0  0  0  0  0  0  0  0  0  0  0
   61.5082  -32.6540   30.7773 Cl  0  0  0  0  0  0  0  0  0  0  0  0
   61.0084  -33.6165   27.9132 C   0  0  0  0  0  0  0  0  0  0  0  0
   70.8835  -31.4540   24.3021 C   0  0  0  0  0  0  0  0  0  0  0  0
   70.1597  -31.0084   23.3786 O   0  0  0  0  0  0  0  0  0  0  0  0
   72.0617  -31.0547   24.4231 O   0  0  0  0  0  0  0  0  0  0  0  0
  1  6  2  0
  1  2  1  0
  2  3  2  0
  3 10  1  0
  3  4  1  0
  4  5  2  0
  4  8  1  0
  5  6  1  0
  5  7  1  0
  8  9  1  0
  9 10  2  0
  9 24  1  0
 10 11  1  0
 11 12  1  0
 12 13  1  0
 13 14  1  0
 14 15  1  0
 15 20  1  0
 15 16  2  0
 16 17  1  0
 17 18  2  0
 17 23  1  0
 18 19  1  0
 18 22  1  0
 19 20  2  0
 19 21  1  0
 24 25  2  0
 24 26  1  0
M  CHG  1  26  -1
M  END
