lig_30
     RDKit          3D

 23 25  0  0  1  0  0  0  0  0999 V2000
   68.6982  -35.7002   28.0839 C   0  0  0  0  0  0  0  0  0  0  0  0
   70.0196  -35.6291   28.5638 C   0  0  0  0  0  0  0  0  0  0  0  0
   70.9151  -34.6907   28.0179 C   0  0  0  0  0  0  0  0  0  0  0  0
   70.4831  -33.8357   26.9859 C   0  0  0  0  0  0  0  0  0  0  0  0
   69.1578  -33.8957   26.4689 C   0  0  0  0  0  0  0  0  0  0  0  0
   68.2747  -34.8421   27.0490 C   0  0  0  0  0  0  0  0  0  0  0  0
   69.0418  -32.9102   25.4279 C   0  0  0  0  0  0  0  0  0  0  0  0
   70.2558  -32.2617   25.3430 C   0  0  0  0  0  0  0  0  0  0  0  0
   71.1088  -32.8271   26.2760 N   0  0  0  0  0  0  0  0  0  0  0  0
   70.7848  -31.1444   24.5143 C   0  0  0  0  0  0  0  0  0  0  0  0
   70.1042  -30.6729   23.5746 O   0  0  0  0  0  0  0  0  0  0  0  0
   71.9131  -30.6732   24.7783 O   0  0  0  0  0  0  0  0  0  0  0  0
   67.8162  -32.6134   24.6191 C   0  0  0  0  0  0  0  0  0  0  0  0
   67.1314  -31.3111   25.0630 C   0  0  0  0  0  0  0  0  0  0  0  0
   66.5096  -31.3839   26.4643 C   0  0  0  0  0  0  0  0  0  0  0  0
   65.3677  -32.2215   26.3781 O   0  0  0  0  0  0  0  0  0  0  0  0
   64.5053  -32.2437   27.4456 C   0  0  0  0  0  0  0  0  0  0  0  0
   63.2054  -32.7302   27.1990 C   0  0  0  0  0  0  0  0  0  0  0  0
   62.2774  -32.8388   28.2517 C   0  0  0  0  0  0  0  0  0  0  0  0
   62.6252  -32.4128   29.5495 C   0  0  0  0  0  0  0  0  0  0  0  0
   63.9123  -31.8932   29.8010 C   0  0  0  0  0  0  0  0  0  0  0  0
   64.8542  -31.8231   28.7538 C   0  0  0  0  0  0  0  0  0  0  0  0
   64.2842  -31.4169   31.1932 C   0  0  0  0  0  0  0  0  0  0  0  0
  1  6  2  0
  1  2  1  0
  2  3  2  0
  3  4  1  0
  4  9  1  0
  4  5  2  0
  5  6  1  0
  5  7  1  0
  7  8  2  0
  7 13  1  0
  8  9  1  0
  8 10  1  0
 10 11  2  0
 10 12  1  0
 13 14  1  0
 14 15  1  0
 15 16  1  0
 16 17  1  0
 17 22  1  0
 17 18  2  0
 18 19  1  0
 19 20  2  0
 20 21  1  0
 21 22  2  0
 21 23  1  0
M  CHG  1  12  -1
M  END
