lig_28
     RDKit          3D

 23 25  0  0  1  0  0  0  0  0999 V2000
   68.6821  -35.6104   28.1381 C   0  0  0  0  0  0  0  0  0  0  0  0
   69.9728  -35.4977   28.6884 C   0  0  0  0  0  0  0  0  0  0  0  0
   70.8815  -34.5629   28.1554 C   0  0  0  0  0  0  0  0  0  0  0  0
   70.4857  -33.7529   27.0751 C   0  0  0  0  0  0  0  0  0  0  0  0
   69.1919  -33.8527   26.4930 C   0  0  0  0  0  0  0  0  0  0  0  0
   68.2984  -34.7975   27.0543 C   0  0  0  0  0  0  0  0  0  0  0  0
   69.1072  -32.8954   25.4214 C   0  0  0  0  0  0  0  0  0  0  0  0
   70.3168  -32.2343   25.3716 C   0  0  0  0  0  0  0  0  0  0  0  0
   71.1308  -32.7599   26.3622 N   0  0  0  0  0  0  0  0  0  0  0  0
   70.8787  -31.1275   24.5486 C   0  0  0  0  0  0  0  0  0  0  0  0
   71.9910  -30.6522   24.8599 O   0  0  0  0  0  0  0  0  0  0  0  0
   70.2444  -30.6726   23.5699 O   0  0  0  0  0  0  0  0  0  0  0  0
   67.9030  -32.6381   24.5686 C   0  0  0  0  0  0  0  0  0  0  0  0
   67.1880  -31.3445   24.9698 C   0  0  0  0  0  0  0  0  0  0  0  0
   66.5403  -31.3648   26.3530 C   0  0  0  0  0  0  0  0  0  0  0  0
   65.4147  -32.2318   26.3804 O   0  0  0  0  0  0  0  0  0  0  0  0
   64.5437  -32.2336   27.4603 C   0  0  0  0  0  0  0  0  0  0  0  0
   63.2600  -32.7465   27.1751 C   0  0  0  0  0  0  0  0  0  0  0  0
   62.2734  -32.8777   28.1714 C   0  0  0  0  0  0  0  0  0  0  0  0
   62.5578  -32.4704   29.4849 C   0  0  0  0  0  0  0  0  0  0  0  0
   63.8130  -31.9198   29.7889 C   0  0  0  0  0  0  0  0  0  0  0  0
   64.8072  -31.8089   28.8008 C   0  0  0  0  0  0  0  0  0  0  0  0
   66.1081  -31.2228   29.2765 C   0  0  0  0  0  0  0  0  0  0  0  0
  1  6  2  0
  1  2  1  0
  2  3  2  0
  3  4  1  0
  4  9  1  0
  4  5  2  0
  5  6  1  0
  5  7  1  0
  7  8  2  0
  7 13  1  0
  8  9  1  0
  8 10  1  0
 10 11  2  0
 10 12  1  0
 13 14  1  0
 14 15  1  0
 15 16  1  0
 16 17  1  0
 17 22  1  0
 17 18  2  0
 18 19  1  0
 19 20  2  0
 20 21  1  0
 21 22  2  0
 22 23  1  0
M  CHG  1  12  -1
M  END
