lig_63
     RDKit          3D

 26 28  0  0  1  0  0  0  0  0999 V2000
   67.9190  -34.5696   27.0416 C   0  0  0  0  0  0  0  0  0  0  0  0
   68.0750  -35.4746   28.0823 C   0  0  0  0  0  0  0  0  0  0  0  0
   69.3453  -35.6808   28.6137 C   0  0  0  0  0  0  0  0  0  0  0  0
   70.4647  -34.9400   28.1857 C   0  0  0  0  0  0  0  0  0  0  0  0
   70.2890  -34.0350   27.1383 C   0  0  0  0  0  0  0  0  0  0  0  0
   69.0145  -33.8379   26.5198 C   0  0  0  0  0  0  0  0  0  0  0  0
   69.0708  -32.9001   25.4290 C   0  0  0  0  0  0  0  0  0  0  0  0
   70.3543  -32.4131   25.2558 C   0  0  0  0  0  0  0  0  0  0  0  0
   71.5215  -33.0692   26.3845 S   0  0  0  0  0  0  0  0  0  0  0  0
   70.9014  -31.4338   24.2875 C   0  0  0  0  0  0  0  0  0  0  0  0
   70.1632  -30.9806   23.3856 O   0  0  0  0  0  0  0  0  0  0  0  0
   72.0856  -31.0507   24.3977 O   0  0  0  0  0  0  0  0  0  0  0  0
   67.8553  -32.5315   24.6308 C   0  0  0  0  0  0  0  0  0  0  0  0
   67.2374  -31.2010   25.0944 C   0  0  0  0  0  0  0  0  0  0  0  0
   66.5701  -31.2624   26.4776 C   0  0  0  0  0  0  0  0  0  0  0  0
   65.4230  -32.0872   26.3728 O   0  0  0  0  0  0  0  0  0  0  0  0
   64.5534  -32.1522   27.4354 C   0  0  0  0  0  0  0  0  0  0  0  0
   63.2877  -32.7100   27.1768 C   0  0  0  0  0  0  0  0  0  0  0  0
   62.3366  -32.8749   28.2013 C   0  0  0  0  0  0  0  0  0  0  0  0
   62.6473  -32.4435   29.5103 C   0  0  0  0  0  0  0  0  0  0  0  0
   63.9043  -31.8521   29.7809 C   0  0  0  0  0  0  0  0  0  0  0  0
   64.8549  -31.7143   28.7459 C   0  0  0  0  0  0  0  0  0  0  0  0
   64.2498  -31.3684   31.1781 C   0  0  0  0  0  0  0  0  0  0  0  0
   61.4942  -32.6559   30.7792 Cl  0  0  0  0  0  0  0  0  0  0  0  0
   61.0138  -33.5502   27.8862 C   0  0  0  0  0  0  0  0  0  0  0  0
   69.4456  -37.0176   29.5782 Cl  0  0  0  0  0  0  0  0  0  0  0  0
  1  6  2  0
  1  2  1  0
  2  3  2  0
  3  4  1  0
  3 26  1  0
  4  5  2  0
  5  9  1  0
  5  6  1  0
  6  7  1  0
  7  8  2  0
  7 13  1  0
  8  9  1  0
  8 10  1  0
 10 11  2  0
 10 12  1  0
 13 14  1  0
 14 15  1  0
 15 16  1  0
 16 17  1  0
 17 22  1  0
 17 18  2  0
 18 19  1  0
 19 20  2  0
 19 25  1  0
 20 21  1  0
 20 24  1  0
 21 22  2  0
 21 23  1  0
M  CHG  1  12  -1
M  END
