lig_p38a_2h
     RDKit          3D

 27 30  0  0  1  0  0  0  0  0999 V2000
   21.6757    8.4324   30.8711 C   0  0  0  0  0  0  0  0  0  0  0  0
   22.8879    7.8367   30.8434 N   0  0  0  0  0  0  0  0  0  0  0  0
   23.9410    8.6438   30.9483 C   0  0  0  0  0  0  0  0  0  0  0  0
   25.1803    8.0310   30.9601 N   0  0  0  0  0  0  0  0  0  0  0  0
   26.4192    8.7171   31.3210 C   0  0  0  0  0  0  0  0  0  0  0  0
   26.3815    9.2170   32.7863 C   0  0  0  0  0  0  0  0  0  0  0  0
   27.7119    9.8622   33.1888 C   0  0  0  0  0  0  0  0  0  0  0  0
   28.7490    8.9046   33.0509 O   0  0  0  0  0  0  0  0  0  0  0  0
   28.9178    8.4687   31.7092 C   0  0  0  0  0  0  0  0  0  0  0  0
   27.6339    7.7879   31.1830 C   0  0  0  0  0  0  0  0  0  0  0  0
   23.9044    9.9699   31.0772 N   0  0  0  0  0  0  0  0  0  0  0  0
   22.7102   10.5895   31.1384 C   0  0  0  0  0  0  0  0  0  0  0  0
   21.5317    9.8247   31.0282 C   0  0  0  0  0  0  0  0  0  0  0  0
   20.2487   10.5111   31.0904 C   0  0  0  0  0  0  0  0  0  0  0  0
   20.2126   11.8420   31.2684 C   0  0  0  0  0  0  0  0  0  0  0  0
   18.7610   12.8214   31.3100 S   0  0  0  0  0  0  0  0  0  0  0  0
   17.3354   11.8281   31.2436 C   0  0  0  0  0  0  0  0  0  0  0  0
   16.4859   11.9423   30.1271 C   0  0  0  0  0  0  0  0  0  0  0  0
   15.2189   11.3379   30.1489 C   0  0  0  0  0  0  0  0  0  0  0  0
   14.8073   10.6372   31.2962 C   0  0  0  0  0  0  0  0  0  0  0  0
   15.6605   10.5433   32.4139 C   0  0  0  0  0  0  0  0  0  0  0  0
   16.9379   11.1150   32.3843 C   0  0  0  0  0  0  0  0  0  0  0  0
   17.7576   11.0167   33.4566 F   0  0  0  0  0  0  0  0  0  0  0  0
   21.4193   12.6699   31.4058 C   0  0  0  0  0  0  0  0  0  0  0  0
   21.3710   13.8907   31.5844 O   0  0  0  0  0  0  0  0  0  0  0  0
   22.6092   12.0068   31.3317 N   0  0  0  0  0  0  0  0  0  0  0  0
   23.8715   12.7572   31.4532 C   0  0  0  0  0  0  0  0  0  0  0  0
  1 13  2  0
  1  2  1  0
  2  3  2  0
  3  4  1  0
  3 11  1  0
  4  5  1  0
  5 10  1  0
  5  6  1  0
  6  7  1  0
  7  8  1  0
  8  9  1  0
  9 10  1  0
 11 12  2  0
 12 26  1  0
 12 13  1  0
 13 14  1  0
 14 15  2  0
 15 16  1  0
 15 24  1  0
 16 17  1  0
 17 22  1  0
 17 18  2  0
 18 19  1  0
 19 20  2  0
 20 21  1  0
 21 22  2  0
 22 23  1  0
 24 25  2  0
 24 26  1  0
 26 27  1  0
M  END
