lig_p38a_2t
     RDKit          3D

 30 33  0  0  1  0  0  0  0  0999 V2000
   21.5940    8.4648   30.8548 C   0  0  0  0  0  0  0  0  0  0  0  0
   22.7878    7.8361   30.9095 N   0  0  0  0  0  0  0  0  0  0  0  0
   23.8596    8.6091   31.0776 C   0  0  0  0  0  0  0  0  0  0  0  0
   25.0797    7.9649   31.1675 N   0  0  0  0  0  0  0  0  0  0  0  0
   26.3561    8.6610   31.2841 C   0  0  0  0  0  0  0  0  0  0  0  0
   27.3811    7.8305   32.0645 C   0  0  0  0  0  0  0  0  0  0  0  0
   28.6659    8.6537   32.2268 C   0  0  0  0  0  0  0  0  0  0  0  0
   29.1197    9.0365   30.9370 O   0  0  0  0  0  0  0  0  0  0  0  0
   28.1708    9.7849   30.1887 C   0  0  0  0  0  0  0  0  0  0  0  0
   26.8876    9.0371   29.9322 C   0  0  0  0  0  0  0  0  0  0  0  0
   23.8571    9.9366   31.1970 N   0  0  0  0  0  0  0  0  0  0  0  0
   22.6777   10.5870   31.1714 C   0  0  0  0  0  0  0  0  0  0  0  0
   21.4827    9.8606   30.9976 C   0  0  0  0  0  0  0  0  0  0  0  0
   20.2174   10.5897   31.0232 C   0  0  0  0  0  0  0  0  0  0  0  0
   20.1951   11.9253   31.2385 C   0  0  0  0  0  0  0  0  0  0  0  0
   19.0452   12.6796   31.3005 O   0  0  0  0  0  0  0  0  0  0  0  0
   17.7946   12.1279   31.2174 C   0  0  0  0  0  0  0  0  0  0  0  0
   17.2688   11.3317   32.2550 C   0  0  0  0  0  0  0  0  0  0  0  0
   18.0268   11.0362   33.3335 F   0  0  0  0  0  0  0  0  0  0  0  0
   15.9460   10.8497   32.1660 C   0  0  0  0  0  0  0  0  0  0  0  0
   15.1681   11.1320   31.0251 C   0  0  0  0  0  0  0  0  0  0  0  0
   13.9230   10.6294   30.9082 F   0  0  0  0  0  0  0  0  0  0  0  0
   15.6949   11.9337   29.9948 C   0  0  0  0  0  0  0  0  0  0  0  0
   16.9973   12.4510   30.1048 C   0  0  0  0  0  0  0  0  0  0  0  0
   21.4330   12.6851   31.4148 C   0  0  0  0  0  0  0  0  0  0  0  0
   21.4094   13.8966   31.6366 O   0  0  0  0  0  0  0  0  0  0  0  0
   22.6056   11.9980   31.3460 N   0  0  0  0  0  0  0  0  0  0  0  0
   23.8660   12.7200   31.5941 C   0  0  0  0  0  0  0  0  0  0  0  0
   24.2726   12.5882   33.0021 C   0  0  0  0  0  0  0  0  0  0  0  0
   24.5867   12.4835   34.1096 N   0  0  0  0  0  0  0  0  0  0  0  0
  1 13  2  0
  1  2  1  0
  2  3  2  0
  3  4  1  0
  3 11  1  0
  4  5  1  0
  5 10  1  0
  5  6  1  0
  6  7  1  0
  7  8  1  0
  8  9  1  0
  9 10  1  0
 11 12  2  0
 12 27  1  0
 12 13  1  0
 13 14  1  0
 14 15  2  0
 15 16  1  0
 15 25  1  0
 16 17  1  0
 17 24  1  0
 17 18  2  0
 18 19  1  0
 18 20  1  0
 20 21  2  0
 21 22  1  0
 21 23  1  0
 23 24  2  0
 25 26  2  0
 25 27  1  0
 27 28  1  0
 28 29  1  0
 29 30  3  0
M  END
