lig_p38a_3flw
     RDKit          3D

 29 31  0  0  1  0  0  0  0  0999 V2000
   26.1989    6.5798   33.4867 O   0  0  0  0  0  0  0  0  0  0  0  0
   27.3048    7.4276   33.2736 C   0  0  0  0  0  0  0  0  0  0  0  0
   27.4961    7.7437   31.7790 C   0  0  0  0  0  0  0  0  0  0  0  0
   26.4297    8.6823   31.1709 C   0  0  0  0  0  0  0  0  0  0  0  0
   25.1388    8.0046   31.0496 N   0  0  0  0  0  0  0  0  0  0  0  0
   23.9029    8.6288   31.0871 C   0  0  0  0  0  0  0  0  0  0  0  0
   22.8411    7.8452   30.8997 N   0  0  0  0  0  0  0  0  0  0  0  0
   21.6410    8.4658   30.8956 C   0  0  0  0  0  0  0  0  0  0  0  0
   21.5128    9.8559   31.0888 C   0  0  0  0  0  0  0  0  0  0  0  0
   22.6962   10.5923   31.2828 C   0  0  0  0  0  0  0  0  0  0  0  0
   23.8811    9.9506   31.2775 N   0  0  0  0  0  0  0  0  0  0  0  0
   22.5995   12.0070   31.4845 N   0  0  0  0  0  0  0  0  0  0  0  0
   23.8538   12.7562   31.6619 C   0  0  0  0  0  0  0  0  0  0  0  0
   21.4167   12.6837   31.4871 C   0  0  0  0  0  0  0  0  0  0  0  0
   21.3615   13.9062   31.6332 O   0  0  0  0  0  0  0  0  0  0  0  0
   20.1936   11.9004   31.3019 C   0  0  0  0  0  0  0  0  0  0  0  0
   19.0356   12.6437   31.2985 O   0  0  0  0  0  0  0  0  0  0  0  0
   17.7893   12.0829   31.2116 C   0  0  0  0  0  0  0  0  0  0  0  0
   17.2453   11.3135   32.2614 C   0  0  0  0  0  0  0  0  0  0  0  0
   17.9905   11.0361   33.3565 F   0  0  0  0  0  0  0  0  0  0  0  0
   15.9193   10.8408   32.1736 C   0  0  0  0  0  0  0  0  0  0  0  0
   15.1482   11.1193   31.0273 C   0  0  0  0  0  0  0  0  0  0  0  0
   13.8968   10.6308   30.9096 F   0  0  0  0  0  0  0  0  0  0  0  0
   15.6875   11.8963   29.9876 C   0  0  0  0  0  0  0  0  0  0  0  0
   16.9994   12.3912   30.0876 C   0  0  0  0  0  0  0  0  0  0  0  0
   20.2395   10.5671   31.1001 C   0  0  0  0  0  0  0  0  0  0  0  0
   26.8987    9.2129   29.8029 C   0  0  0  0  0  0  0  0  0  0  0  0
   26.0079   10.3300   29.2424 C   0  0  0  0  0  0  0  0  0  0  0  0
   26.5478   10.8588   28.0699 O   0  0  0  0  0  0  0  0  0  0  0  0
  1  2  1  0
  2  3  1  0
  3  4  1  0
  4  5  1  0
  4 27  1  0
  5  6  1  0
  6 11  2  0
  6  7  1  0
  7  8  2  0
  8  9  1  0
  9 26  1  0
  9 10  2  0
 10 11  1  0
 10 12  1  0
 12 13  1  0
 12 14  1  0
 14 15  2  0
 14 16  1  0
 16 17  1  0
 16 26  2  0
 17 18  1  0
 18 25  1  0
 18 19  2  0
 19 20  1  0
 19 21  1  0
 21 22  2  0
 22 23  1  0
 22 24  1  0
 24 25  2  0
 27 28  1  0
 28 29  1  0
M  END
