lig_p38a_3fmh
     RDKit          3D

 30 33  0  0  1  0  0  0  0  0999 V2000
   30.4611    9.7621   32.1179 C   0  0  0  0  0  0  0  0  0  0  0  0
   29.4644    9.4235   31.3198 N   0  0  0  0  0  0  0  0  0  0  0  0
   28.7879    8.5802   32.1286 N   0  0  0  0  0  0  0  0  0  0  0  0
   27.5955    7.8362   31.7223 C   0  0  0  0  0  0  0  0  0  0  0  0
   26.4729    8.7297   31.1540 C   0  0  2  0  0  0  0  0  0  0  0  0
   25.1985    8.0015   31.1345 N   0  0  0  0  0  0  0  0  0  0  0  0
   23.9636    8.6249   31.0956 C   0  0  0  0  0  0  0  0  0  0  0  0
   22.9044    7.8380   30.9093 N   0  0  0  0  0  0  0  0  0  0  0  0
   21.7008    8.4536   30.8786 C   0  0  0  0  0  0  0  0  0  0  0  0
   21.5719    9.8454   31.0598 C   0  0  0  0  0  0  0  0  0  0  0  0
   22.7539   10.5842   31.2547 C   0  0  0  0  0  0  0  0  0  0  0  0
   23.9428    9.9462   31.2572 N   0  0  0  0  0  0  0  0  0  0  0  0
   22.6608   11.9988   31.4606 N   0  0  0  0  0  0  0  0  0  0  0  0
   23.9207   12.7384   31.6536 C   0  0  0  0  0  0  0  0  0  0  0  0
   21.4771   12.6785   31.4584 C   0  0  0  0  0  0  0  0  0  0  0  0
   21.4241   13.9053   31.5862 O   0  0  0  0  0  0  0  0  0  0  0  0
   20.2530   11.8919   31.2864 C   0  0  0  0  0  0  0  0  0  0  0  0
   19.0959   12.6373   31.3148 O   0  0  0  0  0  0  0  0  0  0  0  0
   17.8461   12.0847   31.2263 C   0  0  0  0  0  0  0  0  0  0  0  0
   17.2982   11.3115   32.2716 C   0  0  0  0  0  0  0  0  0  0  0  0
   18.0423   11.0329   33.3640 F   0  0  0  0  0  0  0  0  0  0  0  0
   15.9730   10.8378   32.1766 C   0  0  0  0  0  0  0  0  0  0  0  0
   15.2089   11.1242   31.0308 C   0  0  0  0  0  0  0  0  0  0  0  0
   13.9561   10.6362   30.9090 F   0  0  0  0  0  0  0  0  0  0  0  0
   15.7461   11.9125   30.0002 C   0  0  0  0  0  0  0  0  0  0  0  0
   17.0565   12.4106   30.1096 C   0  0  0  0  0  0  0  0  0  0  0  0
   20.2956   10.5574   31.0814 C   0  0  0  0  0  0  0  0  0  0  0  0
   26.7942    9.2946   29.7520 C   0  0  0  0  0  0  0  0  0  0  0  0
   29.3511    8.4291   33.3462 N   0  0  0  0  0  0  0  0  0  0  0  0
   30.4048    9.1815   33.3492 N   0  0  0  0  0  0  0  0  0  0  0  0
  1 30  1  0
  1  2  2  0
  2  3  1  0
  3  4  1  0
  3 29  1  0
  4  5  1  0
  5  6  1  0
  5 28  1  6
  6  7  1  0
  7 12  1  0
  7  8  2  0
  8  9  1  0
  9 10  2  0
 10 27  1  0
 10 11  1  0
 11 12  2  0
 11 13  1  0
 13 14  1  0
 13 15  1  0
 15 16  2  0
 15 17  1  0
 17 18  1  0
 17 27  2  0
 18 19  1  0
 19 26  1  0
 19 20  2  0
 20 21  1  0
 20 22  1  0
 22 23  2  0
 23 24  1  0
 23 25  1  0
 25 26  2  0
 29 30  2  0
M  END
