lig_p38a_2n
     RDKit          3D

 31 34  0  0  1  0  0  0  0  0999 V2000
   26.6636   12.9505   32.8835 O   0  0  0  0  0  0  0  0  0  0  0  0
   25.5230   13.6619   33.3155 C   0  0  0  0  0  0  0  0  0  0  0  0
   24.2366   12.8725   33.0232 C   0  0  0  0  0  0  0  0  0  0  0  0
   23.8917   12.7645   31.5229 C   0  0  0  0  0  0  0  0  0  0  0  0
   22.6347   12.0112   31.3130 N   0  0  0  0  0  0  0  0  0  0  0  0
   21.4502   12.6831   31.3819 C   0  0  0  0  0  0  0  0  0  0  0  0
   21.4099   13.8982   31.5878 O   0  0  0  0  0  0  0  0  0  0  0  0
   20.2163   11.9124   31.2153 C   0  0  0  0  0  0  0  0  0  0  0  0
   19.0598   12.6559   31.2848 O   0  0  0  0  0  0  0  0  0  0  0  0
   17.8112   12.1008   31.1910 C   0  0  0  0  0  0  0  0  0  0  0  0
   17.0188   12.4174   30.0722 C   0  0  0  0  0  0  0  0  0  0  0  0
   15.7100   11.9099   29.9692 C   0  0  0  0  0  0  0  0  0  0  0  0
   15.1757   11.1255   31.0066 C   0  0  0  0  0  0  0  0  0  0  0  0
   13.9224   10.6361   30.9074 F   0  0  0  0  0  0  0  0  0  0  0  0
   15.9516   10.8444   32.1477 C   0  0  0  0  0  0  0  0  0  0  0  0
   17.2731   11.3224   32.2373 C   0  0  0  0  0  0  0  0  0  0  0  0
   18.0282   11.0513   33.3241 F   0  0  0  0  0  0  0  0  0  0  0  0
   20.2492   10.5761   31.0025 C   0  0  0  0  0  0  0  0  0  0  0  0
   21.5230    9.8596   30.9681 C   0  0  0  0  0  0  0  0  0  0  0  0
   22.7136   10.5941   31.1215 C   0  0  0  0  0  0  0  0  0  0  0  0
   23.8957    9.9457   31.1287 N   0  0  0  0  0  0  0  0  0  0  0  0
   23.9066    8.6194   31.0543 C   0  0  0  0  0  0  0  0  0  0  0  0
   25.1273    7.9861   31.1951 N   0  0  0  0  0  0  0  0  0  0  0  0
   26.4130    8.6794   31.3156 C   0  0  0  0  0  0  0  0  0  0  0  0
   26.5682    9.5007   32.6181 C   0  0  0  0  0  0  0  0  0  0  0  0
   26.7463    8.6024   33.8497 C   0  0  0  0  0  0  0  0  0  0  0  0
   27.8809    7.7645   33.6605 O   0  0  0  0  0  0  0  0  0  0  0  0
   27.7392    6.8867   32.5527 C   0  0  0  0  0  0  0  0  0  0  0  0
   27.5833    7.6902   31.2472 C   0  0  0  0  0  0  0  0  0  0  0  0
   22.8404    7.8371   30.9076 N   0  0  0  0  0  0  0  0  0  0  0  0
   21.6421    8.4599   30.8448 C   0  0  0  0  0  0  0  0  0  0  0  0
  1  2  1  0
  2  3  1  0
  3  4  1  0
  4  5  1  0
  5 20  1  0
  5  6  1  0
  6  7  2  0
  6  8  1  0
  8  9  1  0
  8 18  2  0
  9 10  1  0
 10 16  1  0
 10 11  2  0
 11 12  1  0
 12 13  2  0
 13 14  1  0
 13 15  1  0
 15 16  2  0
 16 17  1  0
 18 19  1  0
 19 31  1  0
 19 20  2  0
 20 21  1  0
 21 22  2  0
 22 23  1  0
 22 30  1  0
 23 24  1  0
 24 29  1  0
 24 25  1  0
 25 26  1  0
 26 27  1  0
 27 28  1  0
 28 29  1  0
 30 31  2  0
M  END
