lig_p38a_2i
     RDKit          3D

 27 30  0  0  1  0  0  0  0  0999 V2000
   21.7191    8.4549   30.8497 C   0  0  0  0  0  0  0  0  0  0  0  0
   22.9194    7.8367   30.8972 N   0  0  0  0  0  0  0  0  0  0  0  0
   23.9821    8.6240   31.0437 C   0  0  0  0  0  0  0  0  0  0  0  0
   25.1995    7.9894   31.1875 N   0  0  0  0  0  0  0  0  0  0  0  0
   26.4836    8.6825   31.3037 C   0  0  0  0  0  0  0  0  0  0  0  0
   26.6453    9.4992   32.6104 C   0  0  0  0  0  0  0  0  0  0  0  0
   26.8082    8.5934   33.8395 C   0  0  0  0  0  0  0  0  0  0  0  0
   27.9409    7.7542   33.6583 O   0  0  0  0  0  0  0  0  0  0  0  0
   27.8023    6.8810   32.5446 C   0  0  0  0  0  0  0  0  0  0  0  0
   27.6533    7.6927   31.2382 C   0  0  0  0  0  0  0  0  0  0  0  0
   23.9697    9.9501   31.1237 N   0  0  0  0  0  0  0  0  0  0  0  0
   22.7812   10.5903   31.1514 C   0  0  0  0  0  0  0  0  0  0  0  0
   21.5957    9.8497   31.0023 C   0  0  0  0  0  0  0  0  0  0  0  0
   20.3223   10.5525   31.0849 C   0  0  0  0  0  0  0  0  0  0  0  0
   20.2623   11.8708   31.3498 C   0  0  0  0  0  0  0  0  0  0  0  0
   18.9248   12.5142   31.5150 C   0  0  0  0  0  0  0  0  0  0  0  0
   18.2662   12.7289   30.1822 C   0  0  0  0  0  0  0  0  0  0  0  0
   16.8652   12.7063   30.1389 C   0  0  0  0  0  0  0  0  0  0  0  0
   16.2167   13.0893   28.9632 C   0  0  0  0  0  0  0  0  0  0  0  0
   16.9626   13.5201   27.8484 C   0  0  0  0  0  0  0  0  0  0  0  0
   18.3482   13.4363   27.8597 C   0  0  0  0  0  0  0  0  0  0  0  0
   19.0141   13.0361   29.0123 C   0  0  0  0  0  0  0  0  0  0  0  0
   20.3663   13.0351   28.9694 F   0  0  0  0  0  0  0  0  0  0  0  0
   21.4951   12.6630   31.5080 C   0  0  0  0  0  0  0  0  0  0  0  0
   21.4513   13.8763   31.7097 O   0  0  0  0  0  0  0  0  0  0  0  0
   22.6837   12.0004   31.3850 N   0  0  0  0  0  0  0  0  0  0  0  0
   23.9516   12.7419   31.5000 C   0  0  0  0  0  0  0  0  0  0  0  0
  1 13  2  0
  1  2  1  0
  2  3  2  0
  3  4  1  0
  3 11  1  0
  4  5  1  0
  5 10  1  0
  5  6  1  0
  6  7  1  0
  7  8  1  0
  8  9  1  0
  9 10  1  0
 11 12  2  0
 12 26  1  0
 12 13  1  0
 13 14  1  0
 14 15  2  0
 15 16  1  0
 15 24  1  0
 16 17  1  0
 17 22  1  0
 17 18  2  0
 18 19  1  0
 19 20  2  0
 20 21  1  0
 21 22  2  0
 22 23  1  0
 24 25  2  0
 24 26  1  0
 26 27  1  0
M  END
