lig_p38a_2y
     RDKit          3D

 27 29  0  0  1  0  0  0  0  0999 V2000
   27.7474    7.0338   30.9099 O   0  0  0  0  0  0  0  0  0  0  0  0
   27.4767    7.9043   31.8728 C   0  0  0  0  0  0  0  0  0  0  0  0
   27.0701    7.1963   33.1827 C   0  0  0  0  0  0  0  0  0  0  0  0
   28.7771    8.7093   32.0631 C   0  0  0  0  0  0  0  0  0  0  0  0
   26.3817    8.7680   31.2486 C   0  0  0  0  0  0  0  0  0  0  0  0
   25.1147    8.0522   31.1093 N   0  0  0  0  0  0  0  0  0  0  0  0
   23.8843    8.6625   31.0486 C   0  0  0  0  0  0  0  0  0  0  0  0
   23.8766    9.9877   31.1820 N   0  0  0  0  0  0  0  0  0  0  0  0
   22.6847   10.6161   31.1938 C   0  0  0  0  0  0  0  0  0  0  0  0
   21.4959    9.8712   31.0340 C   0  0  0  0  0  0  0  0  0  0  0  0
   21.6290    8.4787   30.8697 C   0  0  0  0  0  0  0  0  0  0  0  0
   22.8323    7.8606   30.8879 N   0  0  0  0  0  0  0  0  0  0  0  0
   20.2221   10.5828   31.0784 C   0  0  0  0  0  0  0  0  0  0  0  0
   20.1837   11.9224   31.2814 C   0  0  0  0  0  0  0  0  0  0  0  0
   19.0287   12.6635   31.3416 O   0  0  0  0  0  0  0  0  0  0  0  0
   17.7887   12.1000   31.2312 C   0  0  0  0  0  0  0  0  0  0  0  0
   17.2345   11.3185   32.2655 C   0  0  0  0  0  0  0  0  0  0  0  0
   17.9729   11.0361   33.3680 F   0  0  0  0  0  0  0  0  0  0  0  0
   15.9150   10.8446   32.1568 C   0  0  0  0  0  0  0  0  0  0  0  0
   15.1578   11.1260   31.0046 C   0  0  0  0  0  0  0  0  0  0  0  0
   13.9089   10.6349   30.8809 F   0  0  0  0  0  0  0  0  0  0  0  0
   15.7088   11.9154   29.9741 C   0  0  0  0  0  0  0  0  0  0  0  0
   17.0116   12.4176   30.0958 C   0  0  0  0  0  0  0  0  0  0  0  0
   21.4173   12.7030   31.4227 C   0  0  0  0  0  0  0  0  0  0  0  0
   21.3634   13.9250   31.5663 O   0  0  0  0  0  0  0  0  0  0  0  0
   22.5958   12.0268   31.3887 N   0  0  0  0  0  0  0  0  0  0  0  0
   23.8646   12.7579   31.5601 C   0  0  0  0  0  0  0  0  0  0  0  0
  1  2  1  0
  2  3  1  0
  2  4  1  0
  2  5  1  0
  5  6  1  0
  6  7  1  0
  7 12  2  0
  7  8  1  0
  8  9  2  0
  9 26  1  0
  9 10  1  0
 10 11  2  0
 10 13  1  0
 11 12  1  0
 13 14  2  0
 14 15  1  0
 14 24  1  0
 15 16  1  0
 16 23  1  0
 16 17  2  0
 17 18  1  0
 17 19  1  0
 19 20  2  0
 20 21  1  0
 20 22  1  0
 22 23  2  0
 24 25  2  0
 24 26  1  0
 26 27  1  0
M  END
