lig_p38a_2z
     RDKit          3D

 27 29  0  0  1  0  0  0  0  0999 V2000
   28.7878    8.1368   32.0334 O   0  0  0  0  0  0  0  0  0  0  0  0
   27.4820    7.6883   31.7646 C   0  0  0  0  0  0  0  0  0  0  0  0
   26.4479    8.7325   31.3176 C   0  0  0  0  0  0  0  0  0  0  0  0
   25.1423    8.0685   31.1804 N   0  0  0  0  0  0  0  0  0  0  0  0
   23.9062    8.6830   31.0255 C   0  0  0  0  0  0  0  0  0  0  0  0
   23.8604   10.0040   31.0730 N   0  0  0  0  0  0  0  0  0  0  0  0
   22.6698   10.6201   31.0896 C   0  0  0  0  0  0  0  0  0  0  0  0
   21.4898    9.8599   30.9720 C   0  0  0  0  0  0  0  0  0  0  0  0
   21.6346    8.4626   30.8605 C   0  0  0  0  0  0  0  0  0  0  0  0
   22.8554    7.8788   30.9087 N   0  0  0  0  0  0  0  0  0  0  0  0
   20.2097   10.5686   31.0328 C   0  0  0  0  0  0  0  0  0  0  0  0
   20.1690   11.9115   31.2268 C   0  0  0  0  0  0  0  0  0  0  0  0
   19.0116   12.6480   31.3316 O   0  0  0  0  0  0  0  0  0  0  0  0
   17.7711   12.0836   31.2253 C   0  0  0  0  0  0  0  0  0  0  0  0
   17.2290   11.3042   32.2669 C   0  0  0  0  0  0  0  0  0  0  0  0
   17.9687   11.0359   33.3630 F   0  0  0  0  0  0  0  0  0  0  0  0
   15.9123   10.8241   32.1664 C   0  0  0  0  0  0  0  0  0  0  0  0
   15.1508   11.0980   31.0194 C   0  0  0  0  0  0  0  0  0  0  0  0
   13.9118   10.5926   30.9091 F   0  0  0  0  0  0  0  0  0  0  0  0
   15.6921   11.8677   29.9767 C   0  0  0  0  0  0  0  0  0  0  0  0
   16.9944   12.3807   30.0908 C   0  0  0  0  0  0  0  0  0  0  0  0
   21.3973   12.7041   31.3639 C   0  0  0  0  0  0  0  0  0  0  0  0
   21.3479   13.9211   31.5691 O   0  0  0  0  0  0  0  0  0  0  0  0
   22.5770   12.0329   31.2748 N   0  0  0  0  0  0  0  0  0  0  0  0
   23.8341   12.7662   31.4708 C   0  0  0  0  0  0  0  0  0  0  0  0
   26.4347    9.8112   32.4311 C   0  0  0  0  0  0  0  0  0  0  0  0
   26.8684    9.2991   29.9468 C   0  0  0  0  0  0  0  0  0  0  0  0
  1  2  1  0
  2  3  1  0
  3  4  1  0
  3 26  1  0
  3 27  1  0
  4  5  1  0
  5 10  2  0
  5  6  1  0
  6  7  2  0
  7 24  1  0
  7  8  1  0
  8  9  2  0
  8 11  1  0
  9 10  1  0
 11 12  2  0
 12 13  1  0
 12 22  1  0
 13 14  1  0
 14 21  1  0
 14 15  2  0
 15 16  1  0
 15 17  1  0
 17 18  2  0
 18 19  1  0
 18 20  1  0
 20 21  2  0
 22 23  2  0
 22 24  1  0
 24 25  1  0
M  END
