lig_p38a_3fln
     RDKit          3D

 28 31  0  0  1  0  0  0  0  0999 V2000
   21.6129    8.4584   30.8661 C   0  0  0  0  0  0  0  0  0  0  0  0
   22.8097    7.8361   30.9097 N   0  0  0  0  0  0  0  0  0  0  0  0
   23.8757    8.6107   31.0848 C   0  0  0  0  0  0  0  0  0  0  0  0
   25.0924    7.9650   31.1766 N   0  0  0  0  0  0  0  0  0  0  0  0
   26.3590    8.6633   31.2878 C   0  0  0  0  0  0  0  0  0  0  0  0
   27.3892    7.8501   32.0785 C   0  0  0  0  0  0  0  0  0  0  0  0
   28.6730    8.6801   32.2085 C   0  0  0  0  0  0  0  0  0  0  0  0
   29.1311    9.0362   30.9124 O   0  0  0  0  0  0  0  0  0  0  0  0
   28.1830    9.7637   30.1410 C   0  0  0  0  0  0  0  0  0  0  0  0
   26.8968    8.9992   29.9261 C   0  0  0  0  0  0  0  0  0  0  0  0
   23.8707    9.9352   31.2078 N   0  0  0  0  0  0  0  0  0  0  0  0
   22.6902   10.5844   31.1931 C   0  0  0  0  0  0  0  0  0  0  0  0
   21.4989    9.8538   31.0204 C   0  0  0  0  0  0  0  0  0  0  0  0
   20.2316   10.5714   31.0434 C   0  0  0  0  0  0  0  0  0  0  0  0
   20.1977   11.9069   31.2498 C   0  0  0  0  0  0  0  0  0  0  0  0
   19.0441   12.6540   31.2908 O   0  0  0  0  0  0  0  0  0  0  0  0
   17.7962   12.0979   31.2049 C   0  0  0  0  0  0  0  0  0  0  0  0
   17.2571   11.3172   32.2491 C   0  0  0  0  0  0  0  0  0  0  0  0
   18.0077   11.0345   33.3380 F   0  0  0  0  0  0  0  0  0  0  0  0
   15.9343   10.8413   32.1604 C   0  0  0  0  0  0  0  0  0  0  0  0
   15.1604   11.1253   31.0198 C   0  0  0  0  0  0  0  0  0  0  0  0
   13.9068   10.6359   30.9094 F   0  0  0  0  0  0  0  0  0  0  0  0
   15.6908   11.9175   29.9869 C   0  0  0  0  0  0  0  0  0  0  0  0
   16.9998   12.4192   30.0907 C   0  0  0  0  0  0  0  0  0  0  0  0
   21.4311   12.6809   31.4177 C   0  0  0  0  0  0  0  0  0  0  0  0
   21.3863   13.8990   31.5948 O   0  0  0  0  0  0  0  0  0  0  0  0
   22.6115   12.0007   31.3725 N   0  0  0  0  0  0  0  0  0  0  0  0
   23.8841   12.7266   31.5275 C   0  0  0  0  0  0  0  0  0  0  0  0
  1 13  2  0
  1  2  1  0
  2  3  2  0
  3  4  1  0
  3 11  1  0
  4  5  1  0
  5 10  1  0
  5  6  1  0
  6  7  1  0
  7  8  1  0
  8  9  1  0
  9 10  1  0
 11 12  2  0
 12 27  1  0
 12 13  1  0
 13 14  1  0
 14 15  2  0
 15 16  1  0
 15 25  1  0
 16 17  1  0
 17 24  1  0
 17 18  2  0
 18 19  1  0
 18 20  1  0
 20 21  2  0
 21 22  1  0
 21 23  1  0
 23 24  2  0
 25 26  2  0
 25 27  1  0
 27 28  1  0
M  END
