lig_jmc_28
     RDKit          3D

 24 26  0  0  1  0  0  0  0  0999 V2000
   -5.3411   -3.6508  -16.1890 C   0  0  0  0  0  0  0  0  0  0  0  0
   -4.7685   -4.9310  -16.1776 C   0  0  0  0  0  0  0  0  0  0  0  0
   -5.5350   -6.0559  -15.8238 C   0  0  0  0  0  0  0  0  0  0  0  0
   -6.8979   -5.9074  -15.4622 C   0  0  0  0  0  0  0  0  0  0  0  0
   -7.4809   -4.6158  -15.5046 C   0  0  0  0  0  0  0  0  0  0  0  0
   -6.6987   -3.5009  -15.8628 C   0  0  0  0  0  0  0  0  0  0  0  0
   -9.1567   -4.3628  -15.1552 Cl  0  0  0  0  0  0  0  0  0  0  0  0
   -7.7130   -7.0932  -15.0298 C   0  0  0  0  0  0  0  0  0  0  0  0
   -8.1296   -7.1733  -13.8741 O   0  0  0  0  0  0  0  0  0  0  0  0
   -7.9193   -8.0014  -16.0004 N   0  0  0  0  0  0  0  0  0  0  0  0
   -8.7347   -9.1633  -16.0057 C   0  0  0  0  0  0  0  0  0  0  0  0
   -9.5725   -9.5704  -14.9464 C   0  0  0  0  0  0  0  0  0  0  0  0
  -10.3637  -10.7173  -15.1280 C   0  0  0  0  0  0  0  0  0  0  0  0
  -10.3446  -11.4660  -16.2511 N   0  0  0  0  0  0  0  0  0  0  0  0
   -9.5361  -11.1013  -17.2725 C   0  0  0  0  0  0  0  0  0  0  0  0
   -8.7315   -9.9366  -17.1810 C   0  0  0  0  0  0  0  0  0  0  0  0
   -9.5526  -11.9083  -18.4440 N   0  0  0  0  0  0  0  0  0  0  0  0
   -8.6680  -11.9843  -19.4572 C   0  0  0  0  0  0  0  0  0  0  0  0
   -7.6505  -11.2977  -19.5471 O   0  0  0  0  0  0  0  0  0  0  0  0
   -9.0548  -12.9922  -20.4979 C   0  0  2  0  0  0  0  0  0  0  0  0
   -7.9992  -13.8069  -21.2467 C   0  0  1  0  0  0  0  0  0  0  0  0
   -8.7187  -12.6841  -21.9436 C   0  0  0  0  0  0  0  0  0  0  0  0
   -6.5008  -13.7328  -21.0555 C   0  0  0  0  0  0  0  0  0  0  0  0
   -4.7605   -7.5996  -15.8546 Cl  0  0  0  0  0  0  0  0  0  0  0  0
  1  6  2  0
  1  2  1  0
  2  3  2  0
  3  4  1  0
  3 24  1  0
  4  5  2  0
  4  8  1  0
  5  6  1  0
  5  7  1  0
  8  9  2  0
  8 10  1  0
 10 11  1  0
 11 16  1  0
 11 12  2  0
 12 13  1  0
 13 14  2  0
 14 15  1  0
 15 16  2  0
 15 17  1  0
 17 18  1  0
 18 19  2  0
 20 18  1  1
 20 22  1  0
 20 21  1  0
 21 22  1  0
 21 23  1  1
M  END
