4h
     RDKit          3D

 36 38  0  0  1  0  0  0  0  0999 V2000
   66.4702   43.0147   46.0491 N   0  0  0  0  0  0  0  0  0  0  0  0
   67.4245   42.5622   46.8770 N   0  0  0  0  0  0  0  0  0  0  0  0
   67.1588   42.3465   48.1985 C   0  0  0  0  0  0  0  0  0  0  0  0
   65.8400   42.5360   48.6811 C   0  0  0  0  0  0  0  0  0  0  0  0
   64.8793   43.0259   47.8456 N   0  0  0  0  0  0  0  0  0  0  0  0
   65.2439   43.2558   46.5652 C   0  0  0  0  0  0  0  0  0  0  0  0
   70.5890   41.1810   50.5708 N   0  0  0  0  0  0  0  0  0  0  0  0
   69.6715   42.0639   51.0419 C   0  0  0  0  0  0  0  0  0  0  0  0
   68.5603   42.4715   50.2989 C   0  0  0  0  0  0  0  0  0  0  0  0
   68.3486   41.9454   49.0161 C   0  0  0  0  0  0  0  0  0  0  0  0
   69.3054   41.0436   48.5223 C   0  0  0  0  0  0  0  0  0  0  0  0
   70.3958   40.6839   49.3212 C   0  0  0  0  0  0  0  0  0  0  0  0
   64.4682   41.6295   52.6604 C   0  0  0  0  0  0  0  0  0  0  0  0
   63.9360   42.7141   51.9748 C   0  0  0  0  0  0  0  0  0  0  0  0
   64.3809   42.9983   50.6873 C   0  0  0  0  0  0  0  0  0  0  0  0
   65.3561   42.2084   50.0626 C   0  0  0  0  0  0  0  0  0  0  0  0
   65.8433   41.0935   50.7592 C   0  0  0  0  0  0  0  0  0  0  0  0
   65.4263   40.8254   52.0581 C   0  0  0  0  0  0  0  0  0  0  0  0
   64.2964   43.8078   45.7177 N   0  0  0  0  0  0  0  0  0  0  0  0
   71.4361   39.7011   48.8169 C   0  0  0  0  0  0  0  0  0  0  0  0
   69.9171   42.6015   52.4388 C   0  0  0  0  0  0  0  0  0  0  0  0
   67.8674   43.1875   50.7130 H   0  0  0  0  0  0  0  0  0  0  0  0
   69.1970   40.6088   47.5403 H   0  0  0  0  0  0  0  0  0  0  0  0
   64.0607   41.3601   53.9200 F   0  0  0  0  0  0  0  0  0  0  0  0
   63.1945   43.3425   52.4452 H   0  0  0  0  0  0  0  0  0  0  0  0
   63.9750   43.8637   50.1853 H   0  0  0  0  0  0  0  0  0  0  0  0
   66.5666   40.4330   50.3010 H   0  0  0  0  0  0  0  0  0  0  0  0
   65.8280   39.9756   52.5919 H   0  0  0  0  0  0  0  0  0  0  0  0
   63.4725   44.2422   46.1218 H   0  0  0  0  0  0  0  0  0  0  0  0
   64.5523   43.9862   44.7459 H   0  0  0  0  0  0  0  0  0  0  0  0
   70.9655   38.8908   48.2574 H   0  0  0  0  0  0  0  0  0  0  0  0
   72.1385   40.2074   48.1566 H   0  0  0  0  0  0  0  0  0  0  0  0
   71.9986   39.2529   49.6373 H   0  0  0  0  0  0  0  0  0  0  0  0
   69.2160   43.3994   52.6889 H   0  0  0  0  0  0  0  0  0  0  0  0
   70.9250   43.0111   52.5266 H   0  0  0  0  0  0  0  0  0  0  0  0
   69.7957   41.8032   53.1719 H   0  0  0  0  0  0  0  0  0  0  0  0
  1  2  2  0
  1  6  1  0
  2  3  1  0
  3  4  2  0
  3 10  1  0
  4  5  1  0
  4 16  1  0
  5  6  2  0
  6 19  1  0
  7  8  2  0
  7 12  1  0
  8  9  1  0
  8 21  1  0
  9 10  2  0
  9 22  1  0
 10 11  1  0
 11 12  2  0
 11 23  1  0
 12 20  1  0
 13 14  2  0
 13 18  1  0
 13 24  1  0
 14 15  1  0
 14 25  1  0
 15 16  2  0
 15 26  1  0
 16 17  1  0
 17 18  2  0
 17 27  1  0
 18 28  1  0
 19 29  1  0
 19 30  1  0
 20 31  1  0
 20 32  1  0
 20 33  1  0
 21 34  1  0
 21 35  1  0
 21 36  1  0
M  END
