4i
     RDKit          3D

 36 38  0  0  1  0  0  0  0  0999 V2000
   66.4581   42.9633   46.0247 N   0  0  0  0  0  0  0  0  0  0  0  0
   67.4236   42.5069   46.8426 N   0  0  0  0  0  0  0  0  0  0  0  0
   67.1745   42.3057   48.1717 C   0  0  0  0  0  0  0  0  0  0  0  0
   65.8676   42.5151   48.6706 C   0  0  0  0  0  0  0  0  0  0  0  0
   64.9079   43.0210   47.8485 N   0  0  0  0  0  0  0  0  0  0  0  0
   65.2468   43.2354   46.5645 C   0  0  0  0  0  0  0  0  0  0  0  0
   70.5584   41.2174   50.6214 N   0  0  0  0  0  0  0  0  0  0  0  0
   69.6755   42.1680   51.0208 C   0  0  0  0  0  0  0  0  0  0  0  0
   68.5915   42.5646   50.2372 C   0  0  0  0  0  0  0  0  0  0  0  0
   68.3670   41.9481   48.9972 C   0  0  0  0  0  0  0  0  0  0  0  0
   69.2891   40.9795   48.5718 C   0  0  0  0  0  0  0  0  0  0  0  0
   70.3576   40.6397   49.4070 C   0  0  0  0  0  0  0  0  0  0  0  0
   64.4333   41.6568   52.6553 C   0  0  0  0  0  0  0  0  0  0  0  0
   65.5147   40.9491   52.1390 C   0  0  0  0  0  0  0  0  0  0  0  0
   65.9537   41.1924   50.8408 C   0  0  0  0  0  0  0  0  0  0  0  0
   65.3800   42.2063   50.0557 C   0  0  0  0  0  0  0  0  0  0  0  0
   64.3010   42.9169   50.6066 C   0  0  0  0  0  0  0  0  0  0  0  0
   63.8233   42.6364   51.8814 C   0  0  0  0  0  0  0  0  0  0  0  0
   64.2711   43.7848   45.7510 N   0  0  0  0  0  0  0  0  0  0  0  0
   71.3524   39.5765   48.9905 C   0  0  0  0  0  0  0  0  0  0  0  0
   69.8975   42.7591   52.4001 C   0  0  0  0  0  0  0  0  0  0  0  0
   67.9090   43.3180   50.5997 H   0  0  0  0  0  0  0  0  0  0  0  0
   69.1639   40.4858   47.6208 H   0  0  0  0  0  0  0  0  0  0  0  0
   64.0863   41.4594   53.6586 H   0  0  0  0  0  0  0  0  0  0  0  0
   66.1645   40.0457   52.9049 F   0  0  0  0  0  0  0  0  0  0  0  0
   66.7601   40.5814   50.4634 H   0  0  0  0  0  0  0  0  0  0  0  0
   63.8249   43.7143   50.0548 H   0  0  0  0  0  0  0  0  0  0  0  0
   62.7835   43.3420   52.3606 F   0  0  0  0  0  0  0  0  0  0  0  0
   63.4247   44.1594   46.1698 H   0  0  0  0  0  0  0  0  0  0  0  0
   64.4549   43.8766   44.7526 H   0  0  0  0  0  0  0  0  0  0  0  0
   70.8382   38.7285   48.5312 H   0  0  0  0  0  0  0  0  0  0  0  0
   72.0397   39.9895   48.2533 H   0  0  0  0  0  0  0  0  0  0  0  0
   71.9301   39.1932   49.8346 H   0  0  0  0  0  0  0  0  0  0  0  0
   69.1780   43.5481   52.6210 H   0  0  0  0  0  0  0  0  0  0  0  0
   70.8965   43.1891   52.4850 H   0  0  0  0  0  0  0  0  0  0  0  0
   69.7908   41.9862   53.1611 H   0  0  0  0  0  0  0  0  0  0  0  0
  1  2  2  0
  1  6  1  0
  2  3  1  0
  3  4  2  0
  3 10  1  0
  4  5  1  0
  4 16  1  0
  5  6  2  0
  6 19  1  0
  7  8  2  0
  7 12  1  0
  8  9  1  0
  8 21  1  0
  9 10  2  0
  9 22  1  0
 10 11  1  0
 11 12  2  0
 11 23  1  0
 12 20  1  0
 13 14  2  0
 13 18  1  0
 13 24  1  0
 14 15  1  0
 14 25  1  0
 15 16  2  0
 15 26  1  0
 16 17  1  0
 17 18  2  0
 17 27  1  0
 18 28  1  0
 19 29  1  0
 19 30  1  0
 20 31  1  0
 20 32  1  0
 20 33  1  0
 21 34  1  0
 21 35  1  0
 21 36  1  0
M  END
