4l
     RDKit          3D

 36 38  0  0  1  0  0  0  0  0999 V2000
   66.4596   42.9688   46.0074 N   0  0  0  0  0  0  0  0  0  0  0  0
   67.4260   42.5474   46.8439 N   0  0  0  0  0  0  0  0  0  0  0  0
   67.1627   42.3538   48.1706 C   0  0  0  0  0  0  0  0  0  0  0  0
   65.8389   42.5265   48.6458 C   0  0  0  0  0  0  0  0  0  0  0  0
   64.8671   42.9828   47.8025 N   0  0  0  0  0  0  0  0  0  0  0  0
   65.2258   43.1993   46.5166 C   0  0  0  0  0  0  0  0  0  0  0  0
   70.4880   41.1958   50.6872 N   0  0  0  0  0  0  0  0  0  0  0  0
   69.6556   42.2061   51.0418 C   0  0  0  0  0  0  0  0  0  0  0  0
   68.5756   42.6036   50.2503 C   0  0  0  0  0  0  0  0  0  0  0  0
   68.3466   41.9836   49.0153 C   0  0  0  0  0  0  0  0  0  0  0  0
   69.2404   40.9746   48.6275 C   0  0  0  0  0  0  0  0  0  0  0  0
   70.2696   40.5766   49.4950 C   0  0  0  0  0  0  0  0  0  0  0  0
   64.5799   41.6606   52.6684 C   0  0  0  0  0  0  0  0  0  0  0  0
   65.5483   40.8796   52.0577 C   0  0  0  0  0  0  0  0  0  0  0  0
   65.9113   41.1248   50.7397 C   0  0  0  0  0  0  0  0  0  0  0  0
   65.3740   42.2106   50.0357 C   0  0  0  0  0  0  0  0  0  0  0  0
   64.3868   42.9826   50.6662 C   0  0  0  0  0  0  0  0  0  0  0  0
   63.9789   42.6993   51.9694 C   0  0  0  0  0  0  0  0  0  0  0  0
   64.2595   43.7310   45.6669 N   0  0  0  0  0  0  0  0  0  0  0  0
   71.1582   39.3652   49.1892 C   0  0  0  0  0  0  0  0  0  0  0  0
   69.9528   42.8776   52.3692 C   0  0  0  0  0  0  0  0  0  0  0  0
   67.8983   43.3640   50.5978 H   0  0  0  0  0  0  0  0  0  0  0  0
   69.0913   40.4604   47.6908 H   0  0  0  0  0  0  0  0  0  0  0  0
   64.2367   41.4087   53.9521 F   0  0  0  0  0  0  0  0  0  0  0  0
   66.0013   40.0649   52.6030 H   0  0  0  0  0  0  0  0  0  0  0  0
   66.6375   40.4717   50.2780 H   0  0  0  0  0  0  0  0  0  0  0  0
   63.9397   43.8255   50.1576 H   0  0  0  0  0  0  0  0  0  0  0  0
   63.2247   43.3048   52.4492 H   0  0  0  0  0  0  0  0  0  0  0  0
   63.4284   44.1378   46.0820 H   0  0  0  0  0  0  0  0  0  0  0  0
   64.5124   43.9503   44.7039 H   0  0  0  0  0  0  0  0  0  0  0  0
   72.4222   39.5540   49.5682 F   0  0  0  0  0  0  0  0  0  0  0  0
   70.6805   38.3094   49.8448 F   0  0  0  0  0  0  0  0  0  0  0  0
   71.1572   39.0782   47.8896 F   0  0  0  0  0  0  0  0  0  0  0  0
   69.2872   43.7229   52.5571 H   0  0  0  0  0  0  0  0  0  0  0  0
   70.9772   43.2564   52.3832 H   0  0  0  0  0  0  0  0  0  0  0  0
   69.8386   42.1681   53.1901 H   0  0  0  0  0  0  0  0  0  0  0  0
  1  2  2  0
  1  6  1  0
  2  3  1  0
  3  4  2  0
  3 10  1  0
  4  5  1  0
  4 16  1  0
  5  6  2  0
  6 19  1  0
  7  8  2  0
  7 12  1  0
  8  9  1  0
  8 21  1  0
  9 10  2  0
  9 22  1  0
 10 11  1  0
 11 12  2  0
 11 23  1  0
 12 20  1  0
 13 14  2  0
 13 18  1  0
 13 24  1  0
 14 15  1  0
 14 25  1  0
 15 16  2  0
 15 26  1  0
 16 17  1  0
 17 18  2  0
 17 27  1  0
 18 28  1  0
 19 29  1  0
 19 30  1  0
 20 31  1  0
 20 32  1  0
 20 33  1  0
 21 34  1  0
 21 35  1  0
 21 36  1  0
M  END
