lig_6d
     RDKit          3D

 28 30  0  0  1  0  0  0  0  0999 V2000
   13.0790  -12.7101   20.2941 O   0  0  0  0  0  0  0  0  0  0  0  0
   12.8113  -11.7391   21.2143 C   0  0  0  0  0  0  0  0  0  0  0  0
   13.5253  -10.5150   21.2227 C   0  0  0  0  0  0  0  0  0  0  0  0
   14.6145  -10.2160   20.2022 C   0  0  0  0  0  0  0  0  0  0  0  0
   15.9570  -10.5557   20.6679 N   0  0  0  0  0  0  0  0  0  0  0  0
   16.6111  -11.6910   20.3834 C   0  0  0  0  0  0  0  0  0  0  0  0
   18.0145  -11.8692   21.0068 C   0  0  2  0  0  0  0  0  0  0  0  0
   19.0813  -11.7397   19.9031 C   0  0  0  0  0  0  0  0  0  0  0  0
   20.1329  -12.7903   20.2139 C   0  0  0  0  0  0  0  0  0  0  0  0
   19.4297  -13.8356   21.0738 C   0  0  0  0  0  0  0  0  0  0  0  0
   18.2187  -13.2055   21.6059 N   0  0  0  0  0  0  0  0  0  0  0  0
   17.4256  -13.7395   22.5736 C   0  0  0  0  0  0  0  0  0  0  0  0
   17.6720  -15.1696   23.1009 C   0  0  2  0  0  0  0  0  0  0  0  0
   16.4166  -15.9212   23.0712 N   0  0  0  0  0  0  0  0  0  0  0  0
   18.2364  -15.1586   24.5424 C   0  0  0  0  0  0  0  0  0  0  0  0
   19.5988  -14.5035   24.7256 C   0  0  0  0  0  0  0  0  0  0  0  0
   20.7624  -15.1201   24.2174 C   0  0  0  0  0  0  0  0  0  0  0  0
   22.0178  -14.4941   24.3574 C   0  0  0  0  0  0  0  0  0  0  0  0
   22.1180  -13.2530   25.0169 C   0  0  0  0  0  0  0  0  0  0  0  0
   20.9642  -12.6477   25.5528 C   0  0  0  0  0  0  0  0  0  0  0  0
   19.7125  -13.2779   25.4139 C   0  0  0  0  0  0  0  0  0  0  0  0
   16.4872  -13.1101   23.0654 O   0  0  0  0  0  0  0  0  0  0  0  0
   16.1493  -12.5635   19.6468 O   0  0  0  0  0  0  0  0  0  0  0  0
   13.2078   -9.5374   22.1921 C   0  0  0  0  0  0  0  0  0  0  0  0
   12.1862   -9.7736   23.1336 C   0  0  0  0  0  0  0  0  0  0  0  0
   11.8465   -8.5963   24.3443 Cl  0  0  0  0  0  0  0  0  0  0  0  0
   11.4640  -10.9813   23.1080 C   0  0  0  0  0  0  0  0  0  0  0  0
   11.8004  -11.9730   22.1685 C   0  0  0  0  0  0  0  0  0  0  0  0
  1  2  1  0
  2 28  2  0
  2  3  1  0
  3  4  1  0
  3 24  2  0
  4  5  1  0
  5  6  1  0
  7  6  1  6
  6 23  2  0
  7 11  1  0
  7  8  1  0
  8  9  1  0
  9 10  1  0
 10 11  1  0
 11 12  1  0
 12 13  1  0
 12 22  2  0
 13 14  1  1
 13 15  1  0
 15 16  1  0
 16 21  1  0
 16 17  2  0
 17 18  1  0
 18 19  2  0
 19 20  1  0
 20 21  2  0
 24 25  1  0
 25 26  1  0
 25 27  2  0
 27 28  1  0
M  END
