lig_1d
     RDKit          3D

 27 29  0  0  1  0  0  0  0  0999 V2000
   22.0833  -13.3080   25.0728 C   0  0  0  0  0  0  0  0  0  0  0  0
   21.9793  -14.5384   24.3992 C   0  0  0  0  0  0  0  0  0  0  0  0
   20.7167  -15.1575   24.2441 C   0  0  0  0  0  0  0  0  0  0  0  0
   19.5566  -14.5352   24.7484 C   0  0  0  0  0  0  0  0  0  0  0  0
   19.6732  -13.3145   25.4482 C   0  0  0  0  0  0  0  0  0  0  0  0
   20.9311  -12.6989   25.6054 C   0  0  0  0  0  0  0  0  0  0  0  0
   18.1926  -15.1813   24.5559 C   0  0  0  0  0  0  0  0  0  0  0  0
   17.6322  -15.1685   23.1120 C   0  0  2  0  0  0  0  0  0  0  0  0
   17.3946  -13.7366   22.5833 C   0  0  0  0  0  0  0  0  0  0  0  0
   16.4544  -13.0971   23.0634 O   0  0  0  0  0  0  0  0  0  0  0  0
   18.1901  -13.2128   21.6172 N   0  0  0  0  0  0  0  0  0  0  0  0
   19.3874  -13.8582   21.0745 C   0  0  0  0  0  0  0  0  0  0  0  0
   20.0966  -12.8121   20.2055 C   0  0  0  0  0  0  0  0  0  0  0  0
   19.0489  -11.7578   19.9013 C   0  0  0  0  0  0  0  0  0  0  0  0
   17.9926  -11.8784   21.0168 C   0  0  1  0  0  0  0  0  0  0  0  0
   16.5820  -11.6824   20.4115 C   0  0  0  0  0  0  0  0  0  0  0  0
   16.0811  -12.5639   19.7096 O   0  0  0  0  0  0  0  0  0  0  0  0
   15.9611  -10.5213   20.6724 N   0  0  0  0  0  0  0  0  0  0  0  0
   14.6229  -10.1638   20.2169 C   0  0  0  0  0  0  0  0  0  0  0  0
   13.5482  -10.4572   21.2443 C   0  0  0  0  0  0  0  0  0  0  0  0
   12.8501  -11.6811   21.2293 C   0  0  0  0  0  0  0  0  0  0  0  0
   11.8379  -11.9283   22.1721 C   0  0  0  0  0  0  0  0  0  0  0  0
   11.5106  -10.9519   23.1293 C   0  0  0  0  0  0  0  0  0  0  0  0
   12.2241   -9.7384   23.1709 C   0  0  0  0  0  0  0  0  0  0  0  0
   13.2376   -9.4917   22.2248 C   0  0  0  0  0  0  0  0  0  0  0  0
   11.8379   -8.3312   24.6667 I   0  0  0  0  0  0  0  0  0  0  0  0
   16.3627  -15.9036   23.0724 N   0  0  0  0  0  0  0  0  0  0  0  0
  1  6  2  0
  1  2  1  0
  2  3  2  0
  3  4  1  0
  4  5  2  0
  4  7  1  0
  5  6  1  0
  7  8  1  0
  8  9  1  0
  8 27  1  1
  9 10  2  0
  9 11  1  0
 11 15  1  0
 11 12  1  0
 12 13  1  0
 13 14  1  0
 14 15  1  0
 15 16  1  6
 16 17  2  0
 16 18  1  0
 18 19  1  0
 19 20  1  0
 20 25  1  0
 20 21  2  0
 21 22  1  0
 22 23  2  0
 23 24  1  0
 24 25  2  0
 24 26  1  0
M  END
