lig_7e
     RDKit          3D

 28 30  0  0  1  0  0  0  0  0999 V2000
   16.0926  -12.5643   19.6955 O   0  0  0  0  0  0  0  0  0  0  0  0
   16.5969  -11.6946   20.4081 C   0  0  0  0  0  0  0  0  0  0  0  0
   18.0061  -11.8997   21.0112 C   0  0  2  0  0  0  0  0  0  0  0  0
   19.0626  -11.7513   19.9005 C   0  0  0  0  0  0  0  0  0  0  0  0
   20.1288  -12.7905   20.2055 C   0  0  0  0  0  0  0  0  0  0  0  0
   19.4189  -13.8689   21.0160 C   0  0  0  0  0  0  0  0  0  0  0  0
   18.2155  -13.2459   21.5826 N   0  0  0  0  0  0  0  0  0  0  0  0
   17.4524  -13.7898   22.5657 C   0  0  0  0  0  0  0  0  0  0  0  0
   17.7475  -15.2120   23.0911 C   0  0  2  0  0  0  0  0  0  0  0  0
   16.5268  -16.0177   23.0690 N   0  0  0  0  0  0  0  0  0  0  0  0
   18.3291  -15.1965   24.5244 C   0  0  0  0  0  0  0  0  0  0  0  0
   19.6751  -14.5046   24.7023 C   0  0  0  0  0  0  0  0  0  0  0  0
   20.8535  -15.0887   24.1864 C   0  0  0  0  0  0  0  0  0  0  0  0
   22.0895  -14.4305   24.3295 C   0  0  0  0  0  0  0  0  0  0  0  0
   22.1612  -13.1940   24.9988 C   0  0  0  0  0  0  0  0  0  0  0  0
   20.9928  -12.6184   25.5324 C   0  0  0  0  0  0  0  0  0  0  0  0
   19.7569  -13.2784   25.3939 C   0  0  0  0  0  0  0  0  0  0  0  0
   16.5151  -13.1694   23.0729 O   0  0  0  0  0  0  0  0  0  0  0  0
   15.9865  -10.5351   20.6726 N   0  0  0  0  0  0  0  0  0  0  0  0
   14.6520  -10.1615   20.2221 C   0  0  0  0  0  0  0  0  0  0  0  0
   13.5580  -10.4867   21.2213 C   0  0  0  0  0  0  0  0  0  0  0  0
   13.2235   -9.5501   22.2215 C   0  0  0  0  0  0  0  0  0  0  0  0
   12.2035   -9.8432   23.1511 C   0  0  0  0  0  0  0  0  0  0  0  0
   11.8811   -8.9427   24.3180 C   0  0  0  0  0  0  0  0  0  0  0  0
   12.4885   -7.6689   24.2723 O   0  0  0  0  0  0  0  0  0  0  0  0
   11.4935  -11.0555   23.0685 C   0  0  0  0  0  0  0  0  0  0  0  0
   11.8499  -12.0086   22.0957 C   0  0  0  0  0  0  0  0  0  0  0  0
   12.8803  -11.7268   21.1796 C   0  0  0  0  0  0  0  0  0  0  0  0
  1  2  2  0
  3  2  1  6
  2 19  1  0
  3  7  1  0
  3  4  1  0
  4  5  1  0
  5  6  1  0
  6  7  1  0
  7  8  1  0
  8  9  1  0
  8 18  2  0
  9 10  1  1
  9 11  1  0
 11 12  1  0
 12 17  1  0
 12 13  2  0
 13 14  1  0
 14 15  2  0
 15 16  1  0
 16 17  2  0
 19 20  1  0
 20 21  1  0
 21 28  1  0
 21 22  2  0
 22 23  1  0
 23 24  1  0
 23 26  2  0
 24 25  1  0
 26 27  1  0
 27 28  2  0
M  END
