lig_2b
     RDKit          3D

 28 30  0  0  1  0  0  0  0  0999 V2000
   16.4709  -13.1206   22.9945 O   0  0  0  0  0  0  0  0  0  0  0  0
   17.4291  -13.7546   22.5471 C   0  0  0  0  0  0  0  0  0  0  0  0
   18.2401  -13.2271   21.5939 N   0  0  0  0  0  0  0  0  0  0  0  0
   19.4547  -13.8603   21.0764 C   0  0  0  0  0  0  0  0  0  0  0  0
   20.1660  -12.8156   20.2193 C   0  0  0  0  0  0  0  0  0  0  0  0
   19.1225  -11.7583   19.9020 C   0  0  0  0  0  0  0  0  0  0  0  0
   18.0458  -11.8890   20.9956 C   0  0  1  0  0  0  0  0  0  0  0  0
   16.6430  -11.6971   20.3754 C   0  0  0  0  0  0  0  0  0  0  0  0
   16.0155  -10.5549   20.6734 N   0  0  0  0  0  0  0  0  0  0  0  0
   14.6702  -10.1897   20.2501 C   0  0  0  0  0  0  0  0  0  0  0  0
   13.5917  -10.5212   21.2673 C   0  0  0  0  0  0  0  0  0  0  0  0
   13.2641   -9.5851   22.2703 C   0  0  0  0  0  0  0  0  0  0  0  0
   12.1969   -9.8295   23.1730 C   0  0  0  0  0  0  0  0  0  0  0  0
   11.7969   -8.9678   24.1724 O   0  0  0  0  0  0  0  0  0  0  0  0
   12.6017   -7.8446   24.4794 C   0  0  0  0  0  0  0  0  0  0  0  0
   11.4760  -11.0359   23.0523 C   0  0  0  0  0  0  0  0  0  0  0  0
   11.8362  -12.0004   22.0901 C   0  0  0  0  0  0  0  0  0  0  0  0
   12.8882  -11.7407   21.1903 C   0  0  0  0  0  0  0  0  0  0  0  0
   16.1482  -12.5654   19.6531 O   0  0  0  0  0  0  0  0  0  0  0  0
   17.6648  -15.1809   23.1015 C   0  0  2  0  0  0  0  0  0  0  0  0
   16.4013  -15.9161   23.0697 N   0  0  0  0  0  0  0  0  0  0  0  0
   18.2133  -15.1622   24.5497 C   0  0  0  0  0  0  0  0  0  0  0  0
   19.5793  -14.5192   24.7425 C   0  0  0  0  0  0  0  0  0  0  0  0
   20.7409  -15.1450   24.2423 C   0  0  0  0  0  0  0  0  0  0  0  0
   22.0008  -14.5315   24.3984 C   0  0  0  0  0  0  0  0  0  0  0  0
   22.1068  -13.3008   25.0732 C   0  0  0  0  0  0  0  0  0  0  0  0
   20.9541  -12.6845   25.5961 C   0  0  0  0  0  0  0  0  0  0  0  0
   19.6962  -13.2974   25.4352 C   0  0  0  0  0  0  0  0  0  0  0  0
  1  2  2  0
  2  3  1  0
  2 20  1  0
  3  7  1  0
  3  4  1  0
  4  5  1  0
  5  6  1  0
  6  7  1  0
  7  8  1  6
  8  9  1  0
  8 19  2  0
  9 10  1  0
 10 11  1  0
 11 18  1  0
 11 12  2  0
 12 13  1  0
 13 14  1  0
 13 16  2  0
 14 15  1  0
 16 17  1  0
 17 18  2  0
 20 21  1  1
 20 22  1  0
 22 23  1  0
 23 28  1  0
 23 24  2  0
 24 25  1  0
 25 26  2  0
 26 27  1  0
 27 28  2  0
M  END
