lig_1b
     RDKit          3D

 27 29  0  0  1  0  0  0  0  0999 V2000
   22.0769  -13.3106   25.0721 C   0  0  0  0  0  0  0  0  0  0  0  0
   21.9763  -14.5439   24.4010 C   0  0  0  0  0  0  0  0  0  0  0  0
   20.7212  -15.1603   24.2472 C   0  0  0  0  0  0  0  0  0  0  0  0
   19.5583  -14.5434   24.7509 C   0  0  0  0  0  0  0  0  0  0  0  0
   19.6685  -13.3210   25.4479 C   0  0  0  0  0  0  0  0  0  0  0  0
   20.9244  -12.6992   25.6032 C   0  0  0  0  0  0  0  0  0  0  0  0
   18.1985  -15.1923   24.5576 C   0  0  0  0  0  0  0  0  0  0  0  0
   17.6373  -15.1748   23.1132 C   0  0  2  0  0  0  0  0  0  0  0  0
   17.4073  -13.7404   22.5894 C   0  0  0  0  0  0  0  0  0  0  0  0
   16.4701  -13.0996   23.0722 O   0  0  0  0  0  0  0  0  0  0  0  0
   18.2056  -13.2105   21.6262 N   0  0  0  0  0  0  0  0  0  0  0  0
   19.4174  -13.8454   21.0949 C   0  0  0  0  0  0  0  0  0  0  0  0
   20.1235  -12.7963   20.2414 C   0  0  0  0  0  0  0  0  0  0  0  0
   19.0718  -11.7518   19.9238 C   0  0  0  0  0  0  0  0  0  0  0  0
   18.0033  -11.8758   21.0244 C   0  0  1  0  0  0  0  0  0  0  0  0
   16.5978  -11.6835   20.4140 C   0  0  0  0  0  0  0  0  0  0  0  0
   16.1024  -12.5644   19.7098 O   0  0  0  0  0  0  0  0  0  0  0  0
   15.9715  -10.5268   20.6723 N   0  0  0  0  0  0  0  0  0  0  0  0
   14.6374  -10.1732   20.2073 C   0  0  0  0  0  0  0  0  0  0  0  0
   13.5519  -10.4759   21.2225 C   0  0  0  0  0  0  0  0  0  0  0  0
   12.8653  -11.7085   21.1960 C   0  0  0  0  0  0  0  0  0  0  0  0
   11.8378  -11.9613   22.1246 C   0  0  0  0  0  0  0  0  0  0  0  0
   11.4895  -10.9830   23.0742 C   0  0  0  0  0  0  0  0  0  0  0  0
   12.1977   -9.7654   23.1206 C   0  0  0  0  0  0  0  0  0  0  0  0
   13.2176   -9.5102   22.1904 C   0  0  0  0  0  0  0  0  0  0  0  0
   11.8443   -8.6003   24.3342 Cl  0  0  0  0  0  0  0  0  0  0  0  0
   16.3709  -15.9052   23.0721 N   0  0  0  0  0  0  0  0  0  0  0  0
  1  6  2  0
  1  2  1  0
  2  3  2  0
  3  4  1  0
  4  5  2  0
  4  7  1  0
  5  6  1  0
  7  8  1  0
  8  9  1  0
  8 27  1  1
  9 10  2  0
  9 11  1  0
 11 15  1  0
 11 12  1  0
 12 13  1  0
 13 14  1  0
 14 15  1  0
 15 16  1  6
 16 17  2  0
 16 18  1  0
 18 19  1  0
 19 20  1  0
 20 25  1  0
 20 21  2  0
 21 22  1  0
 22 23  2  0
 23 24  1  0
 24 25  2  0
 24 26  1  0
M  END
