lig_6e
     RDKit          3D

 28 30  0  0  1  0  0  0  0  0999 V2000
   22.1256  -13.1758   25.0687 C   0  0  0  0  0  0  0  0  0  0  0  0
   20.9584  -12.5919   25.5957 C   0  0  0  0  0  0  0  0  0  0  0  0
   19.7199  -13.2466   25.4476 C   0  0  0  0  0  0  0  0  0  0  0  0
   19.6351  -14.4724   24.7576 C   0  0  0  0  0  0  0  0  0  0  0  0
   20.8129  -15.0632   24.2547 C   0  0  0  0  0  0  0  0  0  0  0  0
   22.0555  -14.4165   24.4065 C   0  0  0  0  0  0  0  0  0  0  0  0
   18.2886  -15.1584   24.5674 C   0  0  0  0  0  0  0  0  0  0  0  0
   17.7390  -15.1871   23.1197 C   0  0  2  0  0  0  0  0  0  0  0  0
   17.4439  -13.7646   22.5781 C   0  0  0  0  0  0  0  0  0  0  0  0
   16.4907  -13.1440   23.0517 O   0  0  0  0  0  0  0  0  0  0  0  0
   18.2311  -13.2237   21.6100 N   0  0  0  0  0  0  0  0  0  0  0  0
   19.4436  -13.8484   21.0727 C   0  0  0  0  0  0  0  0  0  0  0  0
   20.1445  -12.7994   20.2165 C   0  0  0  0  0  0  0  0  0  0  0  0
   19.0879  -11.7597   19.9039 C   0  0  0  0  0  0  0  0  0  0  0  0
   18.0231  -11.8887   21.0103 C   0  0  1  0  0  0  0  0  0  0  0  0
   16.6209  -11.7036   20.3902 C   0  0  0  0  0  0  0  0  0  0  0  0
   16.1504  -12.5725   19.6546 O   0  0  0  0  0  0  0  0  0  0  0  0
   15.9811  -10.5617   20.6720 N   0  0  0  0  0  0  0  0  0  0  0  0
   14.6439  -10.2118   20.2033 C   0  0  0  0  0  0  0  0  0  0  0  0
   13.5535  -10.4975   21.2190 C   0  0  0  0  0  0  0  0  0  0  0  0
   13.2432   -9.5202   22.1838 C   0  0  0  0  0  0  0  0  0  0  0  0
   12.2283   -9.7564   23.1245 C   0  0  0  0  0  0  0  0  0  0  0  0
   11.5080  -10.9671   23.0978 C   0  0  0  0  0  0  0  0  0  0  0  0
   11.8352  -11.9572   22.1524 C   0  0  0  0  0  0  0  0  0  0  0  0
   12.8507  -11.7224   21.2065 C   0  0  0  0  0  0  0  0  0  0  0  0
   13.1398  -12.6704   20.2845 F   0  0  0  0  0  0  0  0  0  0  0  0
   11.9050   -8.5638   24.3234 Cl  0  0  0  0  0  0  0  0  0  0  0  0
   16.5258  -16.0073   23.0725 N   0  0  0  0  0  0  0  0  0  0  0  0
  1  6  2  0
  1  2  1  0
  2  3  2  0
  3  4  1  0
  4  5  2  0
  4  7  1  0
  5  6  1  0
  7  8  1  0
  8  9  1  0
  8 28  1  1
  9 10  2  0
  9 11  1  0
 11 15  1  0
 11 12  1  0
 12 13  1  0
 13 14  1  0
 14 15  1  0
 15 16  1  6
 16 17  2  0
 16 18  1  0
 18 19  1  0
 19 20  1  0
 20 25  1  0
 20 21  2  0
 21 22  1  0
 22 23  2  0
 22 27  1  0
 23 24  1  0
 24 25  2  0
 25 26  1  0
M  END
