lig_2d
     RDKit          3D

 27 29  0  0  1  0  0  0  0  0999 V2000
   16.4558  -13.1114   23.0641 O   0  0  0  0  0  0  0  0  0  0  0  0
   17.3994  -13.7365   22.5789 C   0  0  0  0  0  0  0  0  0  0  0  0
   18.1873  -13.1998   21.6081 N   0  0  0  0  0  0  0  0  0  0  0  0
   19.4001  -13.8261   21.0754 C   0  0  0  0  0  0  0  0  0  0  0  0
   20.0951  -12.7751   20.2163 C   0  0  0  0  0  0  0  0  0  0  0  0
   19.0311  -11.7369   19.9020 C   0  0  0  0  0  0  0  0  0  0  0  0
   17.9724  -11.8687   21.0115 C   0  0  1  0  0  0  0  0  0  0  0  0
   16.5558  -11.6720   20.4205 C   0  0  0  0  0  0  0  0  0  0  0  0
   15.9559  -10.5006   20.6725 N   0  0  0  0  0  0  0  0  0  0  0  0
   14.6117  -10.1254   20.2457 C   0  0  0  0  0  0  0  0  0  0  0  0
   13.5317  -10.4710   21.2526 C   0  0  0  0  0  0  0  0  0  0  0  0
   13.1807   -9.5492   22.2647 C   0  0  0  0  0  0  0  0  0  0  0  0
   12.1590   -9.8616   23.1842 C   0  0  0  0  0  0  0  0  0  0  0  0
   11.8374   -8.9846   24.2171 N   0  0  0  0  0  0  0  0  0  0  0  0
   11.4701  -11.0883   23.0787 C   0  0  0  0  0  0  0  0  0  0  0  0
   11.8368  -12.0193   22.0899 C   0  0  0  0  0  0  0  0  0  0  0  0
   12.8633  -11.7122   21.1770 C   0  0  0  0  0  0  0  0  0  0  0  0
   16.0319  -12.5633   19.7461 O   0  0  0  0  0  0  0  0  0  0  0  0
   17.6544  -15.1636   23.1010 C   0  0  2  0  0  0  0  0  0  0  0  0
   16.3988  -15.9177   23.0726 N   0  0  0  0  0  0  0  0  0  0  0  0
   18.2256  -15.1570   24.5387 C   0  0  0  0  0  0  0  0  0  0  0  0
   19.5880  -14.5032   24.7194 C   0  0  0  0  0  0  0  0  0  0  0  0
   20.7507  -15.1234   24.2112 C   0  0  0  0  0  0  0  0  0  0  0  0
   22.0073  -14.5050   24.3585 C   0  0  0  0  0  0  0  0  0  0  0  0
   22.1135  -13.2672   25.0235 C   0  0  0  0  0  0  0  0  0  0  0  0
   20.9595  -12.6561   25.5534 C   0  0  0  0  0  0  0  0  0  0  0  0
   19.7060  -13.2774   25.4065 C   0  0  0  0  0  0  0  0  0  0  0  0
  1  2  2  0
  2  3  1  0
  2 19  1  0
  3  7  1  0
  3  4  1  0
  4  5  1  0
  5  6  1  0
  6  7  1  0
  7  8  1  6
  8  9  1  0
  8 18  2  0
  9 10  1  0
 10 11  1  0
 11 17  1  0
 11 12  2  0
 12 13  1  0
 13 14  1  0
 13 15  2  0
 15 16  1  0
 16 17  2  0
 19 20  1  1
 19 21  1  0
 21 22  1  0
 22 27  1  0
 22 23  2  0
 23 24  1  0
 24 25  2  0
 25 26  1  0
 26 27  2  0
M  END
