lig_3a
     RDKit          3D

 27 29  0  0  1  0  0  0  0  0999 V2000
   11.7636   -8.8581   24.1792 C   0  0  0  0  0  0  0  0  0  0  0  0
   12.1638   -9.8455   23.1226 C   0  0  0  0  0  0  0  0  0  0  0  0
   11.4883  -11.0780   23.0715 C   0  0  0  0  0  0  0  0  0  0  0  0
   11.8516  -12.0222   22.1009 C   0  0  0  0  0  0  0  0  0  0  0  0
   12.8811  -11.7321   21.1799 C   0  0  0  0  0  0  0  0  0  0  0  0
   13.5488  -10.4906   21.2241 C   0  0  0  0  0  0  0  0  0  0  0  0
   13.1886   -9.5456   22.2053 C   0  0  0  0  0  0  0  0  0  0  0  0
   14.6377  -10.1626   20.2202 C   0  0  0  0  0  0  0  0  0  0  0  0
   15.9733  -10.5361   20.6722 N   0  0  0  0  0  0  0  0  0  0  0  0
   16.5894  -11.6932   20.3992 C   0  0  0  0  0  0  0  0  0  0  0  0
   16.0876  -12.5638   19.6862 O   0  0  0  0  0  0  0  0  0  0  0  0
   17.9977  -11.8927   21.0035 C   0  0  2  0  0  0  0  0  0  0  0  0
   19.0566  -11.7600   19.8951 C   0  0  0  0  0  0  0  0  0  0  0  0
   20.1203  -12.7958   20.2024 C   0  0  0  0  0  0  0  0  0  0  0  0
   19.4253  -13.8495   21.0627 C   0  0  0  0  0  0  0  0  0  0  0  0
   18.2118  -13.2279   21.5983 N   0  0  0  0  0  0  0  0  0  0  0  0
   17.4238  -13.7639   22.5668 C   0  0  0  0  0  0  0  0  0  0  0  0
   16.4748  -13.1368   23.0436 O   0  0  0  0  0  0  0  0  0  0  0  0
   17.6755  -15.1899   23.1003 C   0  0  1  0  0  0  0  0  0  0  0  0
   18.2350  -15.1834   24.5435 C   0  0  0  0  0  0  0  0  0  0  0  0
   19.5951  -14.5277   24.7363 C   0  0  0  0  0  0  0  0  0  0  0  0
   20.7603  -15.1340   24.2193 C   0  0  0  0  0  0  0  0  0  0  0  0
   22.0133  -14.5089   24.3766 C   0  0  0  0  0  0  0  0  0  0  0  0
   22.1117  -13.2874   25.0700 C   0  0  0  0  0  0  0  0  0  0  0  0
   20.9577  -12.6915   25.6111 C   0  0  0  0  0  0  0  0  0  0  0  0
   19.7046  -13.3137   25.4467 C   0  0  0  0  0  0  0  0  0  0  0  0
   16.4138  -15.9331   23.0723 N   0  0  0  0  0  0  0  0  0  0  0  0
  1  2  1  0
  2  7  2  0
  2  3  1  0
  3  4  2  0
  4  5  1  0
  5  6  2  0
  6  7  1  0
  6  8  1  0
  8  9  1  0
  9 10  1  0
 10 11  2  0
 12 10  1  6
 12 16  1  0
 12 13  1  0
 13 14  1  0
 14 15  1  0
 15 16  1  0
 16 17  1  0
 17 18  2  0
 17 19  1  0
 19 20  1  0
 19 27  1  1
 20 21  1  0
 21 26  1  0
 21 22  2  0
 22 23  1  0
 23 24  2  0
 24 25  1  0
 25 26  2  0
M  END
