lig_3b
     RDKit          3D

 28 30  0  0  1  0  0  0  0  0999 V2000
   10.5800   -8.9638   24.6827 C   0  0  0  0  0  0  0  0  0  0  0  0
   11.8910   -8.7151   24.0353 C   0  0  0  0  0  0  0  0  0  0  0  0
   12.1971   -9.8211   23.0801 C   0  0  0  0  0  0  0  0  0  0  0  0
   11.5002  -11.0618   23.0514 C   0  0  0  0  0  0  0  0  0  0  0  0
   11.8508  -12.0320   22.1077 C   0  0  0  0  0  0  0  0  0  0  0  0
   12.8879  -11.7724   21.1947 C   0  0  0  0  0  0  0  0  0  0  0  0
   13.5708  -10.5388   21.2272 C   0  0  0  0  0  0  0  0  0  0  0  0
   13.2289   -9.5692   22.1702 C   0  0  0  0  0  0  0  0  0  0  0  0
   14.6512  -10.2241   20.2106 C   0  0  0  0  0  0  0  0  0  0  0  0
   15.9914  -10.5639   20.6723 N   0  0  0  0  0  0  0  0  0  0  0  0
   16.6245  -11.7116   20.3986 C   0  0  0  0  0  0  0  0  0  0  0  0
   16.1394  -12.5848   19.6774 O   0  0  0  0  0  0  0  0  0  0  0  0
   18.0297  -11.8989   21.0101 C   0  0  2  0  0  0  0  0  0  0  0  0
   19.0914  -11.7870   19.9012 C   0  0  0  0  0  0  0  0  0  0  0  0
   20.1337  -12.8480   20.2043 C   0  0  0  0  0  0  0  0  0  0  0  0
   19.4393  -13.8674   21.1056 C   0  0  0  0  0  0  0  0  0  0  0  0
   18.2341  -13.2236   21.6334 N   0  0  0  0  0  0  0  0  0  0  0  0
   17.4421  -13.7390   22.6116 C   0  0  0  0  0  0  0  0  0  0  0  0
   16.4870  -13.1068   23.0674 O   0  0  0  0  0  0  0  0  0  0  0  0
   17.7107  -15.1447   23.1979 C   0  0  1  0  0  0  0  0  0  0  0  0
   18.2731  -15.0732   24.6399 C   0  0  0  0  0  0  0  0  0  0  0  0
   19.6421  -14.4259   24.7935 C   0  0  0  0  0  0  0  0  0  0  0  0
   20.7949  -15.0745   24.3011 C   0  0  0  0  0  0  0  0  0  0  0  0
   22.0583  -14.4614   24.4171 C   0  0  0  0  0  0  0  0  0  0  0  0
   22.1761  -13.2030   25.0370 C   0  0  0  0  0  0  0  0  0  0  0  0
   21.0334  -12.5645   25.5549 C   0  0  0  0  0  0  0  0  0  0  0  0
   19.7740  -13.1800   25.4411 C   0  0  0  0  0  0  0  0  0  0  0  0
   16.4684  -15.9222   23.1988 N   0  0  0  0  0  0  0  0  0  0  0  0
  1  2  1  0
  2  3  1  0
  3  8  2  0
  3  4  1  0
  4  5  2  0
  5  6  1  0
  6  7  2  0
  7  8  1  0
  7  9  1  0
  9 10  1  0
 10 11  1  0
 11 12  2  0
 13 11  1  6
 13 17  1  0
 13 14  1  0
 14 15  1  0
 15 16  1  0
 16 17  1  0
 17 18  1  0
 18 19  2  0
 18 20  1  0
 20 21  1  0
 20 28  1  1
 21 22  1  0
 22 27  1  0
 22 23  2  0
 23 24  1  0
 24 25  2  0
 25 26  1  0
 26 27  2  0
M  END
